*SPICE netlist created from BLIF module micro_ucr_hash by blif2BSpice
.include /usr/share/qflow/tech/osu018/osu018_stdcells.sp
.subckt micro_ucr_hash vdd gnd clk bloque_datos[0] bloque_datos[1] bloque_datos[2] bloque_datos[3] bloque_datos[4] bloque_datos[5] bloque_datos[6] bloque_datos[7] bloque_datos[8] bloque_datos[9] bloque_datos[10] bloque_datos[11] bloque_datos[12] bloque_datos[13] bloque_datos[14] bloque_datos[15] bloque_datos[16] bloque_datos[17] bloque_datos[18] bloque_datos[19] bloque_datos[20] bloque_datos[21] bloque_datos[22] bloque_datos[23] bloque_datos[24] bloque_datos[25] bloque_datos[26] bloque_datos[27] bloque_datos[28] bloque_datos[29] bloque_datos[30] bloque_datos[31] bloque_datos[32] bloque_datos[33] bloque_datos[34] bloque_datos[35] bloque_datos[36] bloque_datos[37] bloque_datos[38] bloque_datos[39] bloque_datos[40] bloque_datos[41] bloque_datos[42] bloque_datos[43] bloque_datos[44] bloque_datos[45] bloque_datos[46] bloque_datos[47] bloque_datos[48] bloque_datos[49] bloque_datos[50] bloque_datos[51] bloque_datos[52] bloque_datos[53] bloque_datos[54] bloque_datos[55] bloque_datos[56] bloque_datos[57] bloque_datos[58] bloque_datos[59] bloque_datos[60] bloque_datos[61] bloque_datos[62] bloque_datos[63] bloque_datos[64] bloque_datos[65] bloque_datos[66] bloque_datos[67] bloque_datos[68] bloque_datos[69] bloque_datos[70] bloque_datos[71] bloque_datos[72] bloque_datos[73] bloque_datos[74] bloque_datos[75] bloque_datos[76] bloque_datos[77] bloque_datos[78] bloque_datos[79] bloque_datos[80] bloque_datos[81] bloque_datos[82] bloque_datos[83] bloque_datos[84] bloque_datos[85] bloque_datos[86] bloque_datos[87] bloque_datos[88] bloque_datos[89] bloque_datos[90] bloque_datos[91] bloque_datos[92] bloque_datos[93] bloque_datos[94] bloque_datos[95] inicio target[0] target[1] target[2] target[3] target[4] target[5] target[6] target[7] bounty[0] bounty[1] bounty[2] bounty[3] bounty[4] bounty[5] bounty[6] bounty[7] bounty[8] bounty[9] bounty[10] bounty[11] bounty[12] bounty[13] bounty[14] bounty[15] bounty[16] bounty[17] bounty[18] bounty[19] bounty[20] bounty[21] bounty[22] bounty[23] bounty[24] bounty[25] bounty[26] bounty[27] bounty[28] bounty[29] bounty[30] bounty[31] bounty[32] bounty[33] bounty[34] bounty[35] bounty[36] bounty[37] bounty[38] bounty[39] bounty[40] bounty[41] bounty[42] bounty[43] bounty[44] bounty[45] bounty[46] bounty[47] bounty[48] bounty[49] bounty[50] bounty[51] bounty[52] bounty[53] bounty[54] bounty[55] bounty[56] bounty[57] bounty[58] bounty[59] bounty[60] bounty[61] bounty[62] bounty[63] bounty[64] bounty[65] bounty[66] bounty[67] bounty[68] bounty[69] bounty[70] bounty[71] bounty[72] bounty[73] bounty[74] bounty[75] bounty[76] bounty[77] bounty[78] bounty[79] bounty[80] bounty[81] bounty[82] bounty[83] bounty[84] bounty[85] bounty[86] bounty[87] bounty[88] bounty[89] bounty[90] bounty[91] bounty[92] bounty[93] bounty[94] bounty[95] bounty[96] bounty[97] bounty[98] bounty[99] bounty[100] bounty[101] bounty[102] bounty[103] bounty[104] bounty[105] bounty[106] bounty[107] bounty[108] bounty[109] bounty[110] bounty[111] bounty[112] bounty[113] bounty[114] bounty[115] bounty[116] bounty[117] bounty[118] bounty[119] bounty[120] bounty[121] bounty[122] bounty[123] terminado 
XBUFX4_1 vdd gnd _3917_ _3917__bF$buf4 BUFX4
XBUFX4_2 vdd gnd _3917_ _3917__bF$buf3 BUFX4
XBUFX4_3 vdd gnd _3917_ _3917__bF$buf2 BUFX4
XBUFX4_4 vdd gnd _3917_ _3917__bF$buf1 BUFX4
XBUFX4_5 vdd gnd _3917_ _3917__bF$buf0 BUFX4
XCLKBUF1_1 clk vdd gnd clk_bF$buf4 CLKBUF1
XCLKBUF1_2 clk vdd gnd clk_bF$buf3 CLKBUF1
XCLKBUF1_3 clk vdd gnd clk_bF$buf2 CLKBUF1
XCLKBUF1_4 clk vdd gnd clk_bF$buf1 CLKBUF1
XCLKBUF1_5 clk vdd gnd clk_bF$buf0 CLKBUF1
XBUFX4_6 vdd gnd _3860_ _3860__bF$buf4 BUFX4
XBUFX4_7 vdd gnd _3860_ _3860__bF$buf3 BUFX4
XBUFX4_8 vdd gnd _3860_ _3860__bF$buf2 BUFX4
XBUFX4_9 vdd gnd _3860_ _3860__bF$buf1 BUFX4
XBUFX4_10 vdd gnd _3860_ _3860__bF$buf0 BUFX4
XBUFX4_11 vdd gnd _3777_ _3777__bF$buf4 BUFX4
XBUFX4_12 vdd gnd _3777_ _3777__bF$buf3 BUFX4
XBUFX4_13 vdd gnd _3777_ _3777__bF$buf2 BUFX4
XBUFX4_14 vdd gnd _3777_ _3777__bF$buf1 BUFX4
XBUFX4_15 vdd gnd _3777_ _3777__bF$buf0 BUFX4
XBUFX4_16 vdd gnd _3964_ _3964__bF$buf4 BUFX4
XBUFX4_17 vdd gnd _3964_ _3964__bF$buf3 BUFX4
XBUFX4_18 vdd gnd _3964_ _3964__bF$buf2 BUFX4
XBUFX4_19 vdd gnd _3964_ _3964__bF$buf1 BUFX4
XBUFX4_20 vdd gnd _3964_ _3964__bF$buf0 BUFX4
XBUFX2_1 vdd gnd _0_[0] bounty[0] BUFX2
XBUFX2_2 vdd gnd _0_[1] bounty[1] BUFX2
XBUFX2_3 vdd gnd _0_[2] bounty[2] BUFX2
XBUFX2_4 vdd gnd _0_[3] bounty[3] BUFX2
XBUFX2_5 vdd gnd _0_[4] bounty[4] BUFX2
XBUFX2_6 vdd gnd _0_[5] bounty[5] BUFX2
XBUFX2_7 vdd gnd _0_[6] bounty[6] BUFX2
XBUFX2_8 vdd gnd _0_[7] bounty[7] BUFX2
XBUFX2_9 vdd gnd _0_[8] bounty[8] BUFX2
XBUFX2_10 vdd gnd _0_[9] bounty[9] BUFX2
XBUFX2_11 vdd gnd _0_[10] bounty[10] BUFX2
XBUFX2_12 vdd gnd _0_[11] bounty[11] BUFX2
XBUFX2_13 vdd gnd _0_[12] bounty[12] BUFX2
XBUFX2_14 vdd gnd _0_[13] bounty[13] BUFX2
XBUFX2_15 vdd gnd _0_[14] bounty[14] BUFX2
XBUFX2_16 vdd gnd _0_[15] bounty[15] BUFX2
XBUFX2_17 vdd gnd _0_[16] bounty[16] BUFX2
XBUFX2_18 vdd gnd _0_[17] bounty[17] BUFX2
XBUFX2_19 vdd gnd _0_[18] bounty[18] BUFX2
XBUFX2_20 vdd gnd _0_[19] bounty[19] BUFX2
XBUFX2_21 vdd gnd _0_[20] bounty[20] BUFX2
XBUFX2_22 vdd gnd _0_[21] bounty[21] BUFX2
XBUFX2_23 vdd gnd _0_[22] bounty[22] BUFX2
XBUFX2_24 vdd gnd _0_[23] bounty[23] BUFX2
XBUFX2_25 vdd gnd gnd bounty[24] BUFX2
XBUFX2_26 vdd gnd gnd bounty[25] BUFX2
XBUFX2_27 vdd gnd gnd bounty[26] BUFX2
XBUFX2_28 vdd gnd gnd bounty[27] BUFX2
XBUFX2_29 vdd gnd gnd bounty[28] BUFX2
XBUFX2_30 vdd gnd gnd bounty[29] BUFX2
XBUFX2_31 vdd gnd gnd bounty[30] BUFX2
XBUFX2_32 vdd gnd gnd bounty[31] BUFX2
XBUFX2_33 vdd gnd gnd bounty[32] BUFX2
XBUFX2_34 vdd gnd gnd bounty[33] BUFX2
XBUFX2_35 vdd gnd gnd bounty[34] BUFX2
XBUFX2_36 vdd gnd gnd bounty[35] BUFX2
XBUFX2_37 vdd gnd gnd bounty[36] BUFX2
XBUFX2_38 vdd gnd gnd bounty[37] BUFX2
XBUFX2_39 vdd gnd gnd bounty[38] BUFX2
XBUFX2_40 vdd gnd gnd bounty[39] BUFX2
XBUFX2_41 vdd gnd gnd bounty[40] BUFX2
XBUFX2_42 vdd gnd gnd bounty[41] BUFX2
XBUFX2_43 vdd gnd gnd bounty[42] BUFX2
XBUFX2_44 vdd gnd gnd bounty[43] BUFX2
XBUFX2_45 vdd gnd gnd bounty[44] BUFX2
XBUFX2_46 vdd gnd gnd bounty[45] BUFX2
XBUFX2_47 vdd gnd gnd bounty[46] BUFX2
XBUFX2_48 vdd gnd gnd bounty[47] BUFX2
XBUFX2_49 vdd gnd gnd bounty[48] BUFX2
XBUFX2_50 vdd gnd gnd bounty[49] BUFX2
XBUFX2_51 vdd gnd gnd bounty[50] BUFX2
XBUFX2_52 vdd gnd gnd bounty[51] BUFX2
XBUFX2_53 vdd gnd gnd bounty[52] BUFX2
XBUFX2_54 vdd gnd gnd bounty[53] BUFX2
XBUFX2_55 vdd gnd gnd bounty[54] BUFX2
XBUFX2_56 vdd gnd gnd bounty[55] BUFX2
XBUFX2_57 vdd gnd gnd bounty[56] BUFX2
XBUFX2_58 vdd gnd gnd bounty[57] BUFX2
XBUFX2_59 vdd gnd gnd bounty[58] BUFX2
XBUFX2_60 vdd gnd gnd bounty[59] BUFX2
XBUFX2_61 vdd gnd gnd bounty[60] BUFX2
XBUFX2_62 vdd gnd gnd bounty[61] BUFX2
XBUFX2_63 vdd gnd gnd bounty[62] BUFX2
XBUFX2_64 vdd gnd gnd bounty[63] BUFX2
XBUFX2_65 vdd gnd gnd bounty[64] BUFX2
XBUFX2_66 vdd gnd gnd bounty[65] BUFX2
XBUFX2_67 vdd gnd gnd bounty[66] BUFX2
XBUFX2_68 vdd gnd gnd bounty[67] BUFX2
XBUFX2_69 vdd gnd gnd bounty[68] BUFX2
XBUFX2_70 vdd gnd gnd bounty[69] BUFX2
XBUFX2_71 vdd gnd gnd bounty[70] BUFX2
XBUFX2_72 vdd gnd gnd bounty[71] BUFX2
XBUFX2_73 vdd gnd gnd bounty[72] BUFX2
XBUFX2_74 vdd gnd gnd bounty[73] BUFX2
XBUFX2_75 vdd gnd gnd bounty[74] BUFX2
XBUFX2_76 vdd gnd gnd bounty[75] BUFX2
XBUFX2_77 vdd gnd gnd bounty[76] BUFX2
XBUFX2_78 vdd gnd gnd bounty[77] BUFX2
XBUFX2_79 vdd gnd gnd bounty[78] BUFX2
XBUFX2_80 vdd gnd gnd bounty[79] BUFX2
XBUFX2_81 vdd gnd gnd bounty[80] BUFX2
XBUFX2_82 vdd gnd gnd bounty[81] BUFX2
XBUFX2_83 vdd gnd gnd bounty[82] BUFX2
XBUFX2_84 vdd gnd gnd bounty[83] BUFX2
XBUFX2_85 vdd gnd gnd bounty[84] BUFX2
XBUFX2_86 vdd gnd gnd bounty[85] BUFX2
XBUFX2_87 vdd gnd gnd bounty[86] BUFX2
XBUFX2_88 vdd gnd gnd bounty[87] BUFX2
XBUFX2_89 vdd gnd gnd bounty[88] BUFX2
XBUFX2_90 vdd gnd gnd bounty[89] BUFX2
XBUFX2_91 vdd gnd gnd bounty[90] BUFX2
XBUFX2_92 vdd gnd gnd bounty[91] BUFX2
XBUFX2_93 vdd gnd gnd bounty[92] BUFX2
XBUFX2_94 vdd gnd gnd bounty[93] BUFX2
XBUFX2_95 vdd gnd gnd bounty[94] BUFX2
XBUFX2_96 vdd gnd gnd bounty[95] BUFX2
XBUFX2_97 vdd gnd gnd bounty[96] BUFX2
XBUFX2_98 vdd gnd gnd bounty[97] BUFX2
XBUFX2_99 vdd gnd gnd bounty[98] BUFX2
XBUFX2_100 vdd gnd gnd bounty[99] BUFX2
XBUFX2_101 vdd gnd gnd bounty[100] BUFX2
XBUFX2_102 vdd gnd gnd bounty[101] BUFX2
XBUFX2_103 vdd gnd gnd bounty[102] BUFX2
XBUFX2_104 vdd gnd gnd bounty[103] BUFX2
XBUFX2_105 vdd gnd gnd bounty[104] BUFX2
XBUFX2_106 vdd gnd gnd bounty[105] BUFX2
XBUFX2_107 vdd gnd gnd bounty[106] BUFX2
XBUFX2_108 vdd gnd gnd bounty[107] BUFX2
XBUFX2_109 vdd gnd gnd bounty[108] BUFX2
XBUFX2_110 vdd gnd gnd bounty[109] BUFX2
XBUFX2_111 vdd gnd gnd bounty[110] BUFX2
XBUFX2_112 vdd gnd gnd bounty[111] BUFX2
XBUFX2_113 vdd gnd gnd bounty[112] BUFX2
XBUFX2_114 vdd gnd gnd bounty[113] BUFX2
XBUFX2_115 vdd gnd gnd bounty[114] BUFX2
XBUFX2_116 vdd gnd gnd bounty[115] BUFX2
XBUFX2_117 vdd gnd gnd bounty[116] BUFX2
XBUFX2_118 vdd gnd gnd bounty[117] BUFX2
XBUFX2_119 vdd gnd gnd bounty[118] BUFX2
XBUFX2_120 vdd gnd gnd bounty[119] BUFX2
XBUFX2_121 vdd gnd gnd bounty[120] BUFX2
XBUFX2_122 vdd gnd gnd bounty[121] BUFX2
XBUFX2_123 vdd gnd gnd bounty[122] BUFX2
XBUFX2_124 vdd gnd gnd bounty[123] BUFX2
XBUFX2_125 vdd gnd _1_ terminado BUFX2
XINVX2_1 vdd gnd _867_ _503_ INVX2
XNAND3X1_1 _857_ vdd gnd bloque_datos[22] _861_ _868_ NAND3X1
XNAND3X1_2 _863_ vdd gnd _802_ _864_ _869_ NAND3X1
XAOI21X1_1 gnd vdd _868_ _869_ _870_ _867_ AOI21X1
XOAI21X1_1 gnd vdd _866_ _870_ _871_ _801_ OAI21X1
XNAND2X1_1 vdd _872_ gnd _508_ _512_ NAND2X1
XNAND3X1_3 _868_ vdd gnd _867_ _869_ _873_ NAND3X1
XNAND3X1_4 _862_ vdd gnd _503_ _865_ _874_ NAND3X1
XNAND3X1_5 _873_ vdd gnd _872_ _874_ _875_ NAND3X1
XNOR2X1_1 vdd _3326_ gnd _876_ _3322_ NOR2X1
XINVX1_1 bloque_datos[10] _877_ vdd gnd INVX1
XOR2X2_1 _878_ _877_ vdd gnd _855_ OR2X2
XNAND2X1_2 vdd _879_ gnd _877_ _855_ NAND2X1
XAND2X2_1 vdd gnd _878_ _879_ _880_ AND2X2
XNOR2X1_2 vdd _880_ gnd _881_ _320_ NOR2X1
XAND2X2_2 vdd gnd _880_ _320_ _882_ AND2X2
XOAI21X1_2 gnd vdd _882_ _881_ _883_ _324_ OAI21X1
XINVX2_2 vdd gnd _884_ _324_ INVX2
XNOR2X1_3 vdd _882_ gnd _885_ _881_ NOR2X1
XNAND2X1_3 vdd _886_ gnd _884_ _885_ NAND2X1
XNAND2X1_4 vdd _887_ gnd _883_ _886_ NAND2X1
XXNOR2X1_1 _876_ _887_ gnd vdd _888_ XNOR2X1
XNAND3X1_6 _875_ vdd gnd _888_ _871_ _889_ NAND3X1
XAOI21X1_2 gnd vdd _873_ _874_ _890_ _872_ AOI21X1
XNAND3X1_7 _862_ vdd gnd _867_ _865_ _891_ NAND3X1
XNAND3X1_8 _868_ vdd gnd _503_ _869_ _892_ NAND3X1
XAOI21X1_3 gnd vdd _891_ _892_ _893_ _801_ AOI21X1
XINVX1_2 _888_ _894_ vdd gnd INVX1
XOAI21X1_3 gnd vdd _893_ _890_ _895_ _894_ OAI21X1
XNAND3X1_9 _889_ vdd gnd _800_ _895_ _896_ NAND3X1
XNAND3X1_10 _875_ vdd gnd _894_ _871_ _897_ NAND3X1
XOAI21X1_4 gnd vdd _893_ _890_ _898_ _888_ OAI21X1
XNAND3X1_11 _897_ vdd gnd bloque_datos[38] _898_ _899_ NAND3X1
XAOI21X1_4 gnd vdd _896_ _899_ _900_ _524_ AOI21X1
XINVX2_3 vdd gnd _901_ _524_ INVX2
XNAND3X1_12 _889_ vdd gnd bloque_datos[38] _895_ _902_ NAND3X1
XNAND3X1_13 _897_ vdd gnd _800_ _898_ _903_ NAND3X1
XAOI21X1_5 gnd vdd _902_ _903_ _904_ _901_ AOI21X1
XOAI21X1_5 gnd vdd _900_ _904_ _905_ _799_ OAI21X1
XNAND2X1_5 vdd _906_ gnd _529_ _533_ NAND2X1
XNAND3X1_14 _902_ vdd gnd _901_ _903_ _907_ NAND3X1
XNAND3X1_15 _896_ vdd gnd _524_ _899_ _908_ NAND3X1
XNAND3X1_16 _907_ vdd gnd _906_ _908_ _909_ NAND3X1
XNOR2X1_4 vdd _3337_ gnd _910_ _3333_ NOR2X1
XNAND3X1_17 _883_ vdd gnd bloque_datos[26] _886_ _911_ NAND3X1
XINVX1_3 bloque_datos[26] _912_ vdd gnd INVX1
XINVX1_4 _883_ _913_ vdd gnd INVX1
XAND2X2_3 vdd gnd _885_ _884_ _914_ AND2X2
XOAI21X1_6 gnd vdd _914_ _913_ _915_ _912_ OAI21X1
XAOI21X1_6 gnd vdd _911_ _915_ _916_ _327_ AOI21X1
XINVX1_5 _327_ _917_ vdd gnd INVX1
XNOR3X1_1 vdd gnd _912_ _914_ _913_ _918_ NOR3X1
XAOI21X1_7 gnd vdd _883_ _886_ _919_ bloque_datos[26] AOI21X1
XNOR3X1_2 vdd gnd _919_ _918_ _917_ _920_ NOR3X1
XOAI21X1_7 gnd vdd _920_ _916_ _921_ _331_ OAI21X1
XINVX2_4 vdd gnd _922_ _331_ INVX2
XNOR2X1_5 vdd _920_ gnd _923_ _916_ NOR2X1
XNAND2X1_6 vdd _924_ gnd _922_ _923_ NAND2X1
XNAND2X1_7 vdd _925_ gnd _921_ _924_ NAND2X1
XXNOR2X1_2 _910_ _925_ gnd vdd _926_ XNOR2X1
XNAND3X1_18 _926_ vdd gnd _909_ _905_ _927_ NAND3X1
XAOI21X1_8 gnd vdd _907_ _908_ _928_ _906_ AOI21X1
XNAND3X1_19 _896_ vdd gnd _901_ _899_ _929_ NAND3X1
XNAND3X1_20 _902_ vdd gnd _524_ _903_ _930_ NAND3X1
XAOI22X1_1 gnd vdd _929_ _930_ _931_ _529_ _533_ AOI22X1
XINVX1_6 _926_ _932_ vdd gnd INVX1
XOAI21X1_8 gnd vdd _931_ _928_ _933_ _932_ OAI21X1
XNAND3X1_21 _927_ vdd gnd _798_ _933_ _934_ NAND3X1
XNAND3X1_22 _932_ vdd gnd _909_ _905_ _935_ NAND3X1
XOAI21X1_9 gnd vdd _931_ _928_ _936_ _926_ OAI21X1
XNAND3X1_23 _935_ vdd gnd bloque_datos[54] _936_ _937_ NAND3X1
XAOI21X1_9 gnd vdd _934_ _937_ _938_ _545_ AOI21X1
XINVX2_5 vdd gnd _939_ _545_ INVX2
XNAND3X1_24 _927_ vdd gnd bloque_datos[54] _933_ _940_ NAND3X1
XNAND3X1_25 _935_ vdd gnd _798_ _936_ _941_ NAND3X1
XAOI21X1_10 gnd vdd _940_ _941_ _942_ _939_ AOI21X1
XOAI21X1_10 gnd vdd _938_ _942_ _943_ _797_ OAI21X1
XNAND2X1_8 vdd _944_ gnd _550_ _554_ NAND2X1
XNAND3X1_26 _940_ vdd gnd _939_ _941_ _945_ NAND3X1
XNAND3X1_27 _934_ vdd gnd _545_ _937_ _946_ NAND3X1
XNAND3X1_28 _945_ vdd gnd _944_ _946_ _947_ NAND3X1
XINVX1_7 _338_ _948_ vdd gnd INVX1
XNAND3X1_29 _921_ vdd gnd bloque_datos[42] _924_ _949_ NAND3X1
XINVX1_8 bloque_datos[42] _950_ vdd gnd INVX1
XINVX1_9 _921_ _951_ vdd gnd INVX1
XAND2X2_4 vdd gnd _923_ _922_ _952_ AND2X2
XOAI21X1_11 gnd vdd _952_ _951_ _953_ _950_ OAI21X1
XAOI21X1_11 gnd vdd _949_ _953_ _954_ _334_ AOI21X1
XINVX1_10 _954_ _955_ vdd gnd INVX1
XNAND3X1_30 _949_ vdd gnd _334_ _953_ _956_ NAND3X1
XAOI21X1_12 gnd vdd _956_ _955_ _957_ _948_ AOI21X1
XINVX2_6 vdd gnd _958_ _956_ INVX2
XNOR3X1_3 vdd gnd _954_ _958_ _338_ _959_ NOR3X1
XNOR2X1_6 vdd _959_ gnd _960_ _957_ NOR2X1
XOAI21X1_12 gnd vdd _3349_ _3346_ _961_ _960_ OAI21X1
XNOR2X1_7 vdd _3349_ gnd _962_ _3346_ NOR2X1
XOAI21X1_13 gnd vdd _957_ _959_ _963_ _962_ OAI21X1
XNAND2X1_9 vdd _964_ gnd _961_ _963_ NAND2X1
XNAND3X1_31 _964_ vdd gnd _947_ _943_ _965_ NAND3X1
XAOI21X1_13 gnd vdd _945_ _946_ _966_ _944_ AOI21X1
XNAND3X1_32 _934_ vdd gnd _939_ _937_ _967_ NAND3X1
XNAND3X1_33 _940_ vdd gnd _545_ _941_ _968_ NAND3X1
XAOI21X1_14 gnd vdd _967_ _968_ _969_ _797_ AOI21X1
XINVX1_11 _964_ _970_ vdd gnd INVX1
XOAI21X1_14 gnd vdd _969_ _966_ _971_ _970_ OAI21X1
XNAND3X1_34 _965_ vdd gnd _796_ _971_ _972_ NAND3X1
XOAI21X1_15 gnd vdd _966_ _969_ _973_ _964_ OAI21X1
XNAND3X1_35 _970_ vdd gnd _947_ _943_ _974_ NAND3X1
XNAND3X1_36 _974_ vdd gnd bloque_datos[70] _973_ _975_ NAND3X1
XAOI21X1_15 gnd vdd _972_ _975_ _976_ _566_ AOI21X1
XINVX2_7 vdd gnd _977_ _566_ INVX2
XNAND3X1_37 _965_ vdd gnd bloque_datos[70] _971_ _978_ NAND3X1
XNAND3X1_38 _974_ vdd gnd _796_ _973_ _979_ NAND3X1
XAOI21X1_16 gnd vdd _978_ _979_ _980_ _977_ AOI21X1
XOAI21X1_16 gnd vdd _976_ _980_ _981_ _795_ OAI21X1
XNAND2X1_10 vdd _982_ gnd _571_ _575_ NAND2X1
XNAND3X1_39 _978_ vdd gnd _977_ _979_ _983_ NAND3X1
XNAND3X1_40 _972_ vdd gnd _566_ _975_ _984_ NAND3X1
XNAND3X1_41 _983_ vdd gnd _982_ _984_ _985_ NAND3X1
XINVX1_12 _344_ _986_ vdd gnd INVX1
XINVX1_13 _341_ _987_ vdd gnd INVX1
XINVX1_14 bloque_datos[58] _988_ vdd gnd INVX1
XNOR3X1_4 vdd gnd _988_ _959_ _957_ _989_ NOR3X1
XOAI21X1_17 gnd vdd _958_ _954_ _990_ _338_ OAI21X1
XNAND3X1_42 _956_ vdd gnd _948_ _955_ _991_ NAND3X1
XAOI21X1_17 gnd vdd _990_ _991_ _992_ bloque_datos[58] AOI21X1
XOAI21X1_18 gnd vdd _989_ _992_ _993_ _987_ OAI21X1
XNAND3X1_43 _990_ vdd gnd bloque_datos[58] _991_ _994_ NAND3X1
XOAI21X1_19 gnd vdd _959_ _957_ _995_ _988_ OAI21X1
XNAND3X1_44 _994_ vdd gnd _341_ _995_ _996_ NAND3X1
XAOI21X1_18 gnd vdd _996_ _993_ _997_ _986_ AOI21X1
XAOI21X1_19 gnd vdd _994_ _995_ _998_ _341_ AOI21X1
XNOR3X1_5 vdd gnd _992_ _989_ _987_ _999_ NOR3X1
XNOR3X1_6 vdd gnd _998_ _999_ _344_ _1000_ NOR3X1
XNOR2X1_8 vdd _1000_ gnd _1001_ _997_ NOR2X1
XOAI21X1_20 gnd vdd _3361_ _3358_ _1002_ _1001_ OAI21X1
XNOR2X1_9 vdd _3361_ gnd _1003_ _3358_ NOR2X1
XOAI21X1_21 gnd vdd _997_ _1000_ _1004_ _1003_ OAI21X1
XNAND2X1_11 vdd _1005_ gnd _1002_ _1004_ NAND2X1
XNAND3X1_45 _1005_ vdd gnd _985_ _981_ _1006_ NAND3X1
XAOI21X1_20 gnd vdd _983_ _984_ _1007_ _982_ AOI21X1
XNAND3X1_46 _972_ vdd gnd _977_ _975_ _1008_ NAND3X1
XNAND3X1_47 _978_ vdd gnd _566_ _979_ _1009_ NAND3X1
XAOI21X1_21 gnd vdd _1008_ _1009_ _1010_ _795_ AOI21X1
XINVX1_15 _1005_ _1011_ vdd gnd INVX1
XOAI21X1_22 gnd vdd _1010_ _1007_ _1012_ _1011_ OAI21X1
XNAND3X1_48 _1006_ vdd gnd _794_ _1012_ _1013_ NAND3X1
XNAND3X1_49 _1011_ vdd gnd _985_ _981_ _1014_ NAND3X1
XOAI21X1_23 gnd vdd _1010_ _1007_ _1015_ _1005_ OAI21X1
XNAND3X1_50 _1014_ vdd gnd bloque_datos[86] _1015_ _1016_ NAND3X1
XAOI21X1_22 gnd vdd _1013_ _1016_ _1017_ _588_ AOI21X1
XINVX2_8 vdd gnd _1018_ _588_ INVX2
XNAND3X1_51 _1006_ vdd gnd bloque_datos[86] _1012_ _1019_ NAND3X1
XNAND3X1_52 _1014_ vdd gnd _794_ _1015_ _1020_ NAND3X1
XAOI21X1_23 gnd vdd _1019_ _1020_ _1021_ _1018_ AOI21X1
XOAI21X1_24 gnd vdd _1017_ _1021_ _1022_ _793_ OAI21X1
XNAND2X1_12 vdd _1023_ gnd _593_ _597_ NAND2X1
XNAND3X1_53 _1019_ vdd gnd _1018_ _1020_ _1024_ NAND3X1
XNAND3X1_54 _1013_ vdd gnd _588_ _1016_ _1025_ NAND3X1
XNAND3X1_55 _1024_ vdd gnd _1023_ _1025_ _1026_ NAND3X1
XNOR2X1_10 vdd _3373_ gnd _1027_ _3370_ NOR2X1
XINVX2_9 vdd gnd _1028_ _1027_ INVX2
XOAI21X1_25 gnd vdd _999_ _998_ _1029_ _344_ OAI21X1
XNAND3X1_56 _986_ vdd gnd _996_ _993_ _1030_ NAND3X1
XNAND3X1_57 _1030_ vdd gnd bloque_datos[74] _1029_ _1031_ NAND3X1
XINVX1_16 bloque_datos[74] _1032_ vdd gnd INVX1
XOAI21X1_26 gnd vdd _1000_ _997_ _1033_ _1032_ OAI21X1
XAOI21X1_24 gnd vdd _1031_ _1033_ _1034_ _347_ AOI21X1
XINVX1_17 _347_ _1035_ vdd gnd INVX1
XNOR3X1_7 vdd gnd _997_ _1000_ _1032_ _1036_ NOR3X1
XAOI21X1_25 gnd vdd _1030_ _1029_ _1037_ bloque_datos[74] AOI21X1
XNOR3X1_8 vdd gnd _1037_ _1036_ _1035_ _1038_ NOR3X1
XOAI21X1_27 gnd vdd _1038_ _1034_ _1039_ _350_ OAI21X1
XNOR2X1_11 vdd _349_ gnd _1040_ _91_ NOR2X1
XOAI21X1_28 gnd vdd _1036_ _1037_ _1041_ _1035_ OAI21X1
XNAND3X1_58 _1031_ vdd gnd _347_ _1033_ _1042_ NAND3X1
XNAND3X1_59 _1040_ vdd gnd _1042_ _1041_ _1043_ NAND3X1
XNAND3X1_60 _1043_ vdd gnd _1039_ _1028_ _1044_ NAND3X1
XNAND2X1_13 vdd _1045_ gnd _1043_ _1039_ NAND2X1
XNAND2X1_14 vdd _1046_ gnd _1045_ _1027_ NAND2X1
XNAND2X1_15 vdd _1047_ gnd _1046_ _1044_ NAND2X1
XNAND3X1_61 _1047_ vdd gnd _1026_ _1022_ _1048_ NAND3X1
XAOI21X1_26 gnd vdd _1024_ _1025_ _1049_ _1023_ AOI21X1
XNAND3X1_62 _1013_ vdd gnd _1018_ _1016_ _1050_ NAND3X1
XNAND3X1_63 _1019_ vdd gnd _588_ _1020_ _1051_ NAND3X1
XAOI21X1_27 gnd vdd _1050_ _1051_ _1052_ _793_ AOI21X1
XINVX1_18 _1047_ _1053_ vdd gnd INVX1
XOAI21X1_29 gnd vdd _1052_ _1049_ _1054_ _1053_ OAI21X1
XNAND3X1_64 _1048_ vdd gnd _792_ _1054_ _1055_ NAND3X1
XNAND3X1_65 _1053_ vdd gnd _1026_ _1022_ _1056_ NAND3X1
XOAI21X1_30 gnd vdd _1052_ _1049_ _1057_ _1047_ OAI21X1
XNAND3X1_66 _1056_ vdd gnd W[134] _1057_ _1058_ NAND3X1
XAOI21X1_28 gnd vdd _1055_ _1058_ _1059_ _609_ AOI21X1
XINVX2_10 vdd gnd _1060_ _609_ INVX2
XNAND3X1_67 _1048_ vdd gnd W[134] _1054_ _1061_ NAND3X1
XNAND3X1_68 _1056_ vdd gnd _792_ _1057_ _1062_ NAND3X1
XAOI21X1_29 gnd vdd _1061_ _1062_ _1063_ _1060_ AOI21X1
XOAI21X1_31 gnd vdd _1059_ _1063_ _1064_ _791_ OAI21X1
XNAND2X1_16 vdd _1065_ gnd _626_ _618_ NAND2X1
XNAND3X1_69 _1061_ vdd gnd _1060_ _1062_ _1066_ NAND3X1
XNAND3X1_70 _1055_ vdd gnd _609_ _1058_ _1067_ NAND3X1
XNAND3X1_71 _1066_ vdd gnd _1065_ _1067_ _1068_ NAND3X1
XXNOR2X1_3 _1045_ bloque_datos[90] gnd vdd _1069_ XNOR2X1
XNOR2X1_12 vdd _1069_ gnd _1070_ _354_ NOR2X1
XAND2X2_5 vdd gnd _1069_ _354_ _1071_ AND2X2
XOAI21X1_32 gnd vdd _1071_ _1070_ _1072_ _358_ OAI21X1
XNOR2X1_13 vdd _1071_ gnd _1073_ _1070_ NOR2X1
XNAND2X1_17 vdd _1074_ gnd _357_ _1073_ NAND2X1
XNAND2X1_18 vdd _1075_ gnd _1072_ _1074_ NAND2X1
XNAND3X1_72 _1075_ vdd gnd _1068_ _1064_ _1076_ NAND3X1
XAOI21X1_30 gnd vdd _1066_ _1067_ _1077_ _1065_ AOI21X1
XNAND3X1_73 _1055_ vdd gnd _1060_ _1058_ _1078_ NAND3X1
XNAND3X1_74 _1061_ vdd gnd _609_ _1062_ _1079_ NAND3X1
XAOI21X1_31 gnd vdd _1078_ _1079_ _1080_ _791_ AOI21X1
XAND2X2_6 vdd gnd _1074_ _1072_ _1081_ AND2X2
XOAI21X1_33 gnd vdd _1080_ _1077_ _1082_ _1081_ OAI21X1
XNAND3X1_75 _1076_ vdd gnd _790_ _1082_ _1083_ NAND3X1
XNAND2X1_19 vdd _1084_ gnd _788_ _1083_ NAND2X1
XOAI21X1_34 gnd vdd _1080_ _1077_ _1085_ _1075_ OAI21X1
XNAND3X1_76 _1081_ vdd gnd _1068_ _1064_ _1086_ NAND3X1
XAOI21X1_32 gnd vdd _1086_ _1085_ _1087_ _789_ AOI21X1
XNAND2X1_20 vdd _1088_ gnd W[150] _1087_ NAND2X1
XNAND3X1_77 _1084_ vdd gnd _638_ _1088_ _1089_ NAND3X1
XNAND2X1_21 vdd _1090_ gnd W[150] _1083_ NAND2X1
XNAND2X1_22 vdd _1091_ gnd _788_ _1087_ NAND2X1
XNAND3X1_78 _1090_ vdd gnd _635_ _1091_ _1092_ NAND3X1
XNAND3X1_79 _1089_ vdd gnd _787_ _1092_ _1093_ NAND3X1
XNAND2X1_23 vdd _1094_ gnd _636_ _640_ NAND2X1
XNAND3X1_80 _1090_ vdd gnd _638_ _1091_ _1095_ NAND3X1
XNAND3X1_81 _1084_ vdd gnd _635_ _1088_ _1096_ NAND3X1
XNAND3X1_82 _1096_ vdd gnd _1094_ _1095_ _1097_ NAND3X1
XNAND2X1_24 vdd _1098_ gnd W[138] _1081_ NAND2X1
XINVX1_19 W[138] _1099_ vdd gnd INVX1
XNAND2X1_25 vdd _1100_ gnd _1099_ _1075_ NAND2X1
XNAND2X1_26 vdd _1101_ gnd _1100_ _1098_ NAND2X1
XXNOR2X1_4 _1101_ _362_ gnd vdd _1102_ XNOR2X1
XOAI21X1_35 gnd vdd _301_ _365_ _1103_ _1102_ OAI21X1
XOR2X2_2 _1104_ _367_ vdd gnd _1102_ OR2X2
XNAND2X1_27 vdd _1105_ gnd _1103_ _1104_ NAND2X1
XNAND3X1_83 _1093_ vdd gnd _1105_ _1097_ _1106_ NAND3X1
XAOI21X1_33 gnd vdd _1096_ _1095_ _1107_ _1094_ AOI21X1
XAOI21X1_34 gnd vdd _1089_ _1092_ _1108_ _787_ AOI21X1
XINVX2_11 vdd gnd _1109_ _1105_ INVX2
XOAI21X1_36 gnd vdd _1107_ _1108_ _1110_ _1109_ OAI21X1
XNAND3X1_84 _1106_ vdd gnd _785_ _1110_ _1111_ NAND3X1
XNAND2X1_28 vdd _1112_ gnd _783_ _1111_ NAND2X1
XOAI21X1_37 gnd vdd _1107_ _1108_ _1113_ _1105_ OAI21X1
XNAND3X1_85 _1093_ vdd gnd _1109_ _1097_ _1114_ NAND3X1
XAOI21X1_35 gnd vdd _1114_ _1113_ _1115_ _784_ AOI21X1
XNAND2X1_29 vdd _1116_ gnd W[166] _1115_ NAND2X1
XNAND3X1_86 _1112_ vdd gnd _654_ _1116_ _1117_ NAND3X1
XNAND2X1_30 vdd _1118_ gnd W[166] _1111_ NAND2X1
XNAND2X1_31 vdd _1119_ gnd _783_ _1115_ NAND2X1
XNAND3X1_87 _1118_ vdd gnd _651_ _1119_ _1120_ NAND3X1
XNAND3X1_88 _1117_ vdd gnd _782_ _1120_ _1121_ NAND3X1
XNAND2X1_32 vdd _1122_ gnd _652_ _656_ NAND2X1
XNAND3X1_89 _1118_ vdd gnd _654_ _1119_ _1123_ NAND3X1
XNAND3X1_90 _1112_ vdd gnd _651_ _1116_ _1124_ NAND3X1
XNAND3X1_91 _1124_ vdd gnd _1123_ _1122_ _1125_ NAND3X1
XINVX1_20 W[154] _1126_ vdd gnd INVX1
XNOR2X1_14 vdd _1105_ gnd _1127_ _1126_ NOR2X1
XNOR2X1_15 vdd _1109_ gnd _1128_ W[154] NOR2X1
XOAI21X1_38 gnd vdd _1128_ _1127_ _1129_ _371_ OAI21X1
XINVX1_21 _1129_ _1130_ vdd gnd INVX1
XNOR3X1_9 vdd gnd _1127_ _1128_ _371_ _1131_ NOR3X1
XOAI21X1_39 gnd vdd _1130_ _1131_ _1132_ _374_ OAI21X1
XINVX1_22 _374_ _1133_ vdd gnd INVX1
XINVX1_23 _1131_ _1134_ vdd gnd INVX1
XNAND3X1_92 _1129_ vdd gnd _1133_ _1134_ _1135_ NAND3X1
XNAND2X1_33 vdd _1136_ gnd _1132_ _1135_ NAND2X1
XNAND3X1_93 _1136_ vdd gnd _1121_ _1125_ _1137_ NAND3X1
XAOI21X1_36 gnd vdd _1123_ _1124_ _1138_ _1122_ AOI21X1
XAOI21X1_37 gnd vdd _1117_ _1120_ _1139_ _782_ AOI21X1
XAND2X2_7 vdd gnd _1135_ _1132_ _1140_ AND2X2
XOAI21X1_40 gnd vdd _1138_ _1139_ _1141_ _1140_ OAI21X1
XNAND3X1_94 _1137_ vdd gnd _780_ _1141_ _1142_ NAND3X1
XNAND2X1_34 vdd _1143_ gnd _778_ _1142_ NAND2X1
XNAND3X1_95 _1140_ vdd gnd _1121_ _1125_ _1144_ NAND3X1
XOAI21X1_41 gnd vdd _1138_ _1139_ _1145_ _1136_ OAI21X1
XNAND2X1_35 vdd _1146_ gnd _1144_ _1145_ NAND2X1
XNAND3X1_96 _780_ vdd gnd W[182] _1146_ _1147_ NAND3X1
XNAND3X1_97 _1147_ vdd gnd _673_ _1143_ _1148_ NAND3X1
XNAND2X1_36 vdd _1149_ gnd W[182] _1142_ NAND2X1
XNAND3X1_98 _780_ vdd gnd _778_ _1146_ _1150_ NAND3X1
XNAND3X1_99 _1150_ vdd gnd _670_ _1149_ _1151_ NAND3X1
XNAND3X1_100 _1148_ vdd gnd _777_ _1151_ _1152_ NAND3X1
XINVX1_24 _674_ _1153_ vdd gnd INVX1
XOAI21X1_42 gnd vdd _1153_ _676_ _1154_ _671_ OAI21X1
XNAND3X1_101 _1150_ vdd gnd _673_ _1149_ _1155_ NAND3X1
XNAND3X1_102 _1147_ vdd gnd _670_ _1143_ _1156_ NAND3X1
XNAND3X1_103 _1156_ vdd gnd _1155_ _1154_ _1157_ NAND3X1
XINVX1_25 _379_ _1158_ vdd gnd INVX1
XAND2X2_8 vdd gnd _1140_ W[170] _1159_ AND2X2
XNOR2X1_16 vdd _1140_ gnd _1160_ W[170] NOR2X1
XOAI21X1_43 gnd vdd _1159_ _1160_ _1161_ _1158_ OAI21X1
XINVX1_26 _1161_ _1162_ vdd gnd INVX1
XNOR2X1_17 vdd _1159_ gnd _1163_ _1160_ NOR2X1
XAND2X2_9 vdd gnd _1163_ _379_ _1164_ AND2X2
XOAI21X1_44 gnd vdd _1164_ _1162_ _1165_ _383_ OAI21X1
XINVX1_27 _383_ _1166_ vdd gnd INVX1
XNAND2X1_37 vdd _1167_ gnd _379_ _1163_ NAND2X1
XNAND3X1_104 _1161_ vdd gnd _1166_ _1167_ _1168_ NAND3X1
XNAND2X1_38 vdd _1169_ gnd _1168_ _1165_ NAND2X1
XNAND3X1_105 _1152_ vdd gnd _1169_ _1157_ _1170_ NAND3X1
XAOI21X1_38 gnd vdd _1155_ _1156_ _1171_ _1154_ AOI21X1
XAOI21X1_39 gnd vdd _1148_ _1151_ _1172_ _777_ AOI21X1
XAND2X2_10 vdd gnd _1165_ _1168_ _1173_ AND2X2
XOAI21X1_45 gnd vdd _1171_ _1172_ _1174_ _1173_ OAI21X1
XNAND3X1_106 _1170_ vdd gnd _775_ _1174_ _1175_ NAND3X1
XNAND2X1_39 vdd _1176_ gnd _773_ _1175_ NAND2X1
XOAI21X1_46 gnd vdd _1171_ _1172_ _1177_ _1169_ OAI21X1
XNAND3X1_107 _1152_ vdd gnd _1173_ _1157_ _1178_ NAND3X1
XNAND2X1_40 vdd _1179_ gnd _1178_ _1177_ NAND2X1
XNAND3X1_108 _775_ vdd gnd W[198] _1179_ _1180_ NAND3X1
XNAND3X1_109 _1176_ vdd gnd _692_ _1180_ _1181_ NAND3X1
XNAND2X1_41 vdd _1182_ gnd W[198] _1175_ NAND2X1
XAOI21X1_40 gnd vdd _1178_ _1177_ _1183_ _774_ AOI21X1
XNAND2X1_42 vdd _1184_ gnd _773_ _1183_ NAND2X1
XNAND3X1_110 _1182_ vdd gnd _689_ _1184_ _1185_ NAND3X1
XNAND3X1_111 _1181_ vdd gnd _772_ _1185_ _1186_ NAND3X1
XNOR3X1_10 vdd gnd _427_ _689_ _685_ _1187_ NOR3X1
XOAI21X1_47 gnd vdd _1187_ _695_ _1188_ _690_ OAI21X1
XNAND3X1_112 _1182_ vdd gnd _692_ _1184_ _1189_ NAND3X1
XNAND3X1_113 _1176_ vdd gnd _689_ _1180_ _1190_ NAND3X1
XNAND3X1_114 _1190_ vdd gnd _1188_ _1189_ _1191_ NAND3X1
XINVX2_12 vdd gnd _1192_ _391_ INVX2
XINVX1_28 _387_ _1193_ vdd gnd INVX1
XINVX1_29 W[186] _1194_ vdd gnd INVX1
XNOR2X1_18 vdd _1169_ gnd _1195_ _1194_ NOR2X1
XNOR2X1_19 vdd _1173_ gnd _1196_ W[186] NOR2X1
XOAI21X1_48 gnd vdd _1196_ _1195_ _1197_ _1193_ OAI21X1
XNOR2X1_20 vdd _1196_ gnd _1198_ _1195_ NOR2X1
XNAND2X1_43 vdd _1199_ gnd _387_ _1198_ NAND2X1
XNAND2X1_44 vdd _1200_ gnd _1197_ _1199_ NAND2X1
XXNOR2X1_5 _1200_ _1192_ gnd vdd _1201_ XNOR2X1
XINVX2_13 vdd gnd _1202_ _1201_ INVX2
XAOI21X1_41 gnd vdd _1186_ _1191_ _1203_ _1202_ AOI21X1
XNAND3X1_115 _1186_ vdd gnd _1202_ _1191_ _1204_ NAND3X1
XOAI21X1_49 gnd vdd _3428_ _3432_ _1205_ _1204_ OAI21X1
XOAI21X1_50 gnd vdd _1205_ _1203_ _1206_ _770_ OAI21X1
XNAND2X1_45 vdd _1207_ gnd _1186_ _1191_ NAND2X1
XNAND2X1_46 vdd _1208_ gnd _1201_ _1207_ NAND2X1
XINVX2_14 vdd gnd _1209_ _3437_ INVX2
XAND2X2_11 vdd gnd _1204_ _1209_ _1210_ AND2X2
XNAND3X1_116 _1208_ vdd gnd W[214] _1210_ _1211_ NAND3X1
XAOI21X1_42 gnd vdd _1206_ _1211_ _1212_ _708_ AOI21X1
XOAI21X1_51 gnd vdd _1205_ _1203_ _1213_ W[214] OAI21X1
XNAND3X1_117 _1208_ vdd gnd _770_ _1210_ _1214_ NAND3X1
XAOI21X1_43 gnd vdd _1213_ _1214_ _1215_ _711_ AOI21X1
XOAI21X1_52 gnd vdd _1212_ _1215_ _1216_ _769_ OAI21X1
XNOR3X1_11 vdd gnd _424_ _708_ _704_ _1217_ NOR3X1
XOAI21X1_53 gnd vdd _1217_ _714_ _1218_ _709_ OAI21X1
XNAND3X1_118 _1213_ vdd gnd _711_ _1214_ _1219_ NAND3X1
XNAND3X1_119 _1206_ vdd gnd _708_ _1211_ _1220_ NAND3X1
XNAND3X1_120 _1220_ vdd gnd _1219_ _1218_ _1221_ NAND3X1
XINVX2_15 vdd gnd _1222_ _395_ INVX2
XNAND2X1_47 vdd _1223_ gnd W[202] _1201_ NAND2X1
XINVX2_16 vdd gnd _1224_ _1223_ INVX2
XNOR2X1_21 vdd _1201_ gnd _1225_ W[202] NOR2X1
XOAI21X1_54 gnd vdd _1224_ _1225_ _1226_ _1222_ OAI21X1
XINVX1_30 _1226_ _1227_ vdd gnd INVX1
XOR2X2_3 _1228_ _1225_ vdd gnd _1224_ OR2X2
XNOR2X1_22 vdd _1228_ gnd _1229_ _1222_ NOR2X1
XOAI21X1_55 gnd vdd _1229_ _1227_ _1230_ _399_ OAI21X1
XINVX1_31 _399_ _1231_ vdd gnd INVX1
XOR2X2_4 _1232_ _1222_ vdd gnd _1228_ OR2X2
XNAND3X1_121 _1226_ vdd gnd _1231_ _1232_ _1233_ NAND3X1
XNAND2X1_48 vdd _1234_ gnd _1230_ _1233_ NAND2X1
XNAND3X1_122 _1234_ vdd gnd _1221_ _1216_ _1235_ NAND3X1
XAOI21X1_44 gnd vdd _1219_ _1220_ _1236_ _1218_ AOI21X1
XNAND3X1_123 _1206_ vdd gnd _711_ _1211_ _1237_ NAND3X1
XNAND3X1_124 _1213_ vdd gnd _708_ _1214_ _1238_ NAND3X1
XAOI21X1_45 gnd vdd _1238_ _1237_ _1239_ _769_ AOI21X1
XAND2X2_12 vdd gnd _1233_ _1230_ _1240_ AND2X2
XOAI21X1_56 gnd vdd _1236_ _1239_ _1241_ _1240_ OAI21X1
XNAND3X1_125 _1235_ vdd gnd _767_ _1241_ _1242_ NAND3X1
XNAND2X1_49 vdd _1243_ gnd _765_ _1242_ NAND2X1
XNAND3X1_126 _1240_ vdd gnd _1221_ _1216_ _1244_ NAND3X1
XOAI21X1_57 gnd vdd _1236_ _1239_ _1245_ _1234_ OAI21X1
XAOI21X1_46 gnd vdd _1244_ _1245_ _1246_ _766_ AOI21X1
XNAND2X1_50 vdd _1247_ gnd W[230] _1246_ NAND2X1
XAOI21X1_47 gnd vdd _1243_ _1247_ _1248_ _727_ AOI21X1
XNAND2X1_51 vdd _1249_ gnd W[230] _1242_ NAND2X1
XNAND2X1_52 vdd _1250_ gnd _765_ _1246_ NAND2X1
XAOI21X1_48 gnd vdd _1249_ _1250_ _1251_ _730_ AOI21X1
XOAI21X1_58 gnd vdd _1248_ _1251_ _1252_ _764_ OAI21X1
XNOR3X1_12 vdd gnd _421_ _727_ _723_ _1253_ NOR3X1
XOAI21X1_59 gnd vdd _1253_ _733_ _1254_ _728_ OAI21X1
XNAND3X1_127 _1249_ vdd gnd _730_ _1250_ _1255_ NAND3X1
XNAND3X1_128 _1243_ vdd gnd _727_ _1247_ _1256_ NAND3X1
XNAND3X1_129 _1255_ vdd gnd _1256_ _1254_ _1257_ NAND3X1
XNAND2X1_53 vdd _1258_ gnd W[218] _1240_ NAND2X1
XINVX1_32 W[218] _1259_ vdd gnd INVX1
XNAND2X1_54 vdd _1260_ gnd _1259_ _1234_ NAND2X1
XAOI21X1_49 gnd vdd _1260_ _1258_ _1261_ _403_ AOI21X1
XINVX1_33 _403_ _1262_ vdd gnd INVX1
XNAND2X1_55 vdd _1263_ gnd _1260_ _1258_ NAND2X1
XNOR2X1_23 vdd _1263_ gnd _1264_ _1262_ NOR2X1
XOAI21X1_60 gnd vdd _1264_ _1261_ _1265_ _407_ OAI21X1
XINVX1_34 _407_ _1266_ vdd gnd INVX1
XINVX1_35 _1261_ _1267_ vdd gnd INVX1
XOR2X2_5 _1268_ _1262_ vdd gnd _1263_ OR2X2
XNAND3X1_130 _1267_ vdd gnd _1266_ _1268_ _1269_ NAND3X1
XNAND2X1_56 vdd _1270_ gnd _1265_ _1269_ NAND2X1
XNAND3X1_131 _1257_ vdd gnd _1270_ _1252_ _1271_ NAND3X1
XAOI21X1_50 gnd vdd _1256_ _1255_ _1272_ _1254_ AOI21X1
XNAND3X1_132 _1243_ vdd gnd _730_ _1247_ _1273_ NAND3X1