* XSpice netlist created from SPICE and liberty sources by spi2xspice.py
*SPICE netlist created from BLIF module micro_ucr_hash by blif2BSpice
.subckt micro_ucr_hash a_vdd a_gnd a_clk a_bloque_datos_0_ a_bloque_datos_1_ a_bloque_datos_2_ a_bloque_datos_3_ a_bloque_datos_4_ a_bloque_datos_5_ a_bloque_datos_6_ a_bloque_datos_7_ a_bloque_datos_8_ a_bloque_datos_9_ a_bloque_datos_10_ a_bloque_datos_11_ a_bloque_datos_12_ a_bloque_datos_13_ a_bloque_datos_14_ a_bloque_datos_15_ a_bloque_datos_16_ a_bloque_datos_17_ a_bloque_datos_18_ a_bloque_datos_19_ a_bloque_datos_20_ a_bloque_datos_21_ a_bloque_datos_22_ a_bloque_datos_23_ a_bloque_datos_24_ a_bloque_datos_25_ a_bloque_datos_26_ a_bloque_datos_27_ a_bloque_datos_28_ a_bloque_datos_29_ a_bloque_datos_30_ a_bloque_datos_31_ a_bloque_datos_32_ a_bloque_datos_33_ a_bloque_datos_34_ a_bloque_datos_35_ a_bloque_datos_36_ a_bloque_datos_37_ a_bloque_datos_38_ a_bloque_datos_39_ a_bloque_datos_40_ a_bloque_datos_41_ a_bloque_datos_42_ a_bloque_datos_43_ a_bloque_datos_44_ a_bloque_datos_45_ a_bloque_datos_46_ a_bloque_datos_47_ a_bloque_datos_48_ a_bloque_datos_49_ a_bloque_datos_50_ a_bloque_datos_51_ a_bloque_datos_52_ a_bloque_datos_53_ a_bloque_datos_54_ a_bloque_datos_55_ a_bloque_datos_56_ a_bloque_datos_57_ a_bloque_datos_58_ a_bloque_datos_59_ a_bloque_datos_60_ a_bloque_datos_61_ a_bloque_datos_62_ a_bloque_datos_63_ a_bloque_datos_64_ a_bloque_datos_65_ a_bloque_datos_66_ a_bloque_datos_67_ a_bloque_datos_68_ a_bloque_datos_69_ a_bloque_datos_70_ a_bloque_datos_71_ a_bloque_datos_72_ a_bloque_datos_73_ a_bloque_datos_74_ a_bloque_datos_75_ a_bloque_datos_76_ a_bloque_datos_77_ a_bloque_datos_78_ a_bloque_datos_79_ a_bloque_datos_80_ a_bloque_datos_81_ a_bloque_datos_82_ a_bloque_datos_83_ a_bloque_datos_84_ a_bloque_datos_85_ a_bloque_datos_86_ a_bloque_datos_87_ a_bloque_datos_88_ a_bloque_datos_89_ a_bloque_datos_90_ a_bloque_datos_91_ a_bloque_datos_92_ a_bloque_datos_93_ a_bloque_datos_94_ a_bloque_datos_95_ a_inicio a_target_0_ a_target_1_ a_target_2_ a_target_3_ a_target_4_ a_target_5_ a_target_6_ a_target_7_ a_bounty_0_ a_bounty_1_ a_bounty_2_ a_bounty_3_ a_bounty_4_ a_bounty_5_ a_bounty_6_ a_bounty_7_ a_bounty_8_ a_bounty_9_ a_bounty_10_ a_bounty_11_ a_bounty_12_ a_bounty_13_ a_bounty_14_ a_bounty_15_ a_bounty_16_ a_bounty_17_ a_bounty_18_ a_bounty_19_ a_bounty_20_ a_bounty_21_ a_bounty_22_ a_bounty_23_ a_bounty_24_ a_bounty_25_ a_bounty_26_ a_bounty_27_ a_bounty_28_ a_bounty_29_ a_bounty_30_ a_bounty_31_ a_bounty_32_ a_bounty_33_ a_bounty_34_ a_bounty_35_ a_bounty_36_ a_bounty_37_ a_bounty_38_ a_bounty_39_ a_bounty_40_ a_bounty_41_ a_bounty_42_ a_bounty_43_ a_bounty_44_ a_bounty_45_ a_bounty_46_ a_bounty_47_ a_bounty_48_ a_bounty_49_ a_bounty_50_ a_bounty_51_ a_bounty_52_ a_bounty_53_ a_bounty_54_ a_bounty_55_ a_bounty_56_ a_bounty_57_ a_bounty_58_ a_bounty_59_ a_bounty_60_ a_bounty_61_ a_bounty_62_ a_bounty_63_ a_bounty_64_ a_bounty_65_ a_bounty_66_ a_bounty_67_ a_bounty_68_ a_bounty_69_ a_bounty_70_ a_bounty_71_ a_bounty_72_ a_bounty_73_ a_bounty_74_ a_bounty_75_ a_bounty_76_ a_bounty_77_ a_bounty_78_ a_bounty_79_ a_bounty_80_ a_bounty_81_ a_bounty_82_ a_bounty_83_ a_bounty_84_ a_bounty_85_ a_bounty_86_ a_bounty_87_ a_bounty_88_ a_bounty_89_ a_bounty_90_ a_bounty_91_ a_bounty_92_ a_bounty_93_ a_bounty_94_ a_bounty_95_ a_bounty_96_ a_bounty_97_ a_bounty_98_ a_bounty_99_ a_bounty_100_ a_bounty_101_ a_bounty_102_ a_bounty_103_ a_bounty_104_ a_bounty_105_ a_bounty_106_ a_bounty_107_ a_bounty_108_ a_bounty_109_ a_bounty_110_ a_bounty_111_ a_bounty_112_ a_bounty_113_ a_bounty_114_ a_bounty_115_ a_bounty_116_ a_bounty_117_ a_bounty_118_ a_bounty_119_ a_bounty_120_ a_bounty_121_ a_bounty_122_ a_bounty_123_ a_terminado
ABUFX4_1 [_3917_] _3917__bF$buf4 d_lut_BUFX4
ABUFX4_2 [_3917_] _3917__bF$buf3 d_lut_BUFX4
ABUFX4_3 [_3917_] _3917__bF$buf2 d_lut_BUFX4
ABUFX4_4 [_3917_] _3917__bF$buf1 d_lut_BUFX4
ABUFX4_5 [_3917_] _3917__bF$buf0 d_lut_BUFX4
ACLKBUF1_1 [clk] clk_bF$buf4 d_lut_CLKBUF1
ACLKBUF1_2 [clk] clk_bF$buf3 d_lut_CLKBUF1
ACLKBUF1_3 [clk] clk_bF$buf2 d_lut_CLKBUF1
ACLKBUF1_4 [clk] clk_bF$buf1 d_lut_CLKBUF1
ACLKBUF1_5 [clk] clk_bF$buf0 d_lut_CLKBUF1
ABUFX4_6 [_3860_] _3860__bF$buf4 d_lut_BUFX4
ABUFX4_7 [_3860_] _3860__bF$buf3 d_lut_BUFX4
ABUFX4_8 [_3860_] _3860__bF$buf2 d_lut_BUFX4
ABUFX4_9 [_3860_] _3860__bF$buf1 d_lut_BUFX4
ABUFX4_10 [_3860_] _3860__bF$buf0 d_lut_BUFX4
ABUFX4_11 [_3777_] _3777__bF$buf4 d_lut_BUFX4
ABUFX4_12 [_3777_] _3777__bF$buf3 d_lut_BUFX4
ABUFX4_13 [_3777_] _3777__bF$buf2 d_lut_BUFX4
ABUFX4_14 [_3777_] _3777__bF$buf1 d_lut_BUFX4
ABUFX4_15 [_3777_] _3777__bF$buf0 d_lut_BUFX4
ABUFX4_16 [_3964_] _3964__bF$buf4 d_lut_BUFX4
ABUFX4_17 [_3964_] _3964__bF$buf3 d_lut_BUFX4
ABUFX4_18 [_3964_] _3964__bF$buf2 d_lut_BUFX4
ABUFX4_19 [_3964_] _3964__bF$buf1 d_lut_BUFX4
ABUFX4_20 [_3964_] _3964__bF$buf0 d_lut_BUFX4
ABUFX2_1 [_0__0_] bounty_0_ d_lut_BUFX2
ABUFX2_2 [_0__1_] bounty_1_ d_lut_BUFX2
ABUFX2_3 [_0__2_] bounty_2_ d_lut_BUFX2
ABUFX2_4 [_0__3_] bounty_3_ d_lut_BUFX2
ABUFX2_5 [_0__4_] bounty_4_ d_lut_BUFX2
ABUFX2_6 [_0__5_] bounty_5_ d_lut_BUFX2
ABUFX2_7 [_0__6_] bounty_6_ d_lut_BUFX2
ABUFX2_8 [_0__7_] bounty_7_ d_lut_BUFX2
ABUFX2_9 [_0__8_] bounty_8_ d_lut_BUFX2
ABUFX2_10 [_0__9_] bounty_9_ d_lut_BUFX2
ABUFX2_11 [_0__10_] bounty_10_ d_lut_BUFX2
ABUFX2_12 [_0__11_] bounty_11_ d_lut_BUFX2
ABUFX2_13 [_0__12_] bounty_12_ d_lut_BUFX2
ABUFX2_14 [_0__13_] bounty_13_ d_lut_BUFX2
ABUFX2_15 [_0__14_] bounty_14_ d_lut_BUFX2
ABUFX2_16 [_0__15_] bounty_15_ d_lut_BUFX2
ABUFX2_17 [_0__16_] bounty_16_ d_lut_BUFX2
ABUFX2_18 [_0__17_] bounty_17_ d_lut_BUFX2
ABUFX2_19 [_0__18_] bounty_18_ d_lut_BUFX2
ABUFX2_20 [_0__19_] bounty_19_ d_lut_BUFX2
ABUFX2_21 [_0__20_] bounty_20_ d_lut_BUFX2
ABUFX2_22 [_0__21_] bounty_21_ d_lut_BUFX2
ABUFX2_23 [_0__22_] bounty_22_ d_lut_BUFX2
ABUFX2_24 [_0__23_] bounty_23_ d_lut_BUFX2
ABUFX2_25 [gnd] bounty_24_ d_lut_BUFX2
ABUFX2_26 [gnd] bounty_25_ d_lut_BUFX2
ABUFX2_27 [gnd] bounty_26_ d_lut_BUFX2
ABUFX2_28 [gnd] bounty_27_ d_lut_BUFX2
ABUFX2_29 [gnd] bounty_28_ d_lut_BUFX2
ABUFX2_30 [gnd] bounty_29_ d_lut_BUFX2
ABUFX2_31 [gnd] bounty_30_ d_lut_BUFX2
ABUFX2_32 [gnd] bounty_31_ d_lut_BUFX2
ABUFX2_33 [gnd] bounty_32_ d_lut_BUFX2
ABUFX2_34 [gnd] bounty_33_ d_lut_BUFX2
ABUFX2_35 [gnd] bounty_34_ d_lut_BUFX2
ABUFX2_36 [gnd] bounty_35_ d_lut_BUFX2
ABUFX2_37 [gnd] bounty_36_ d_lut_BUFX2
ABUFX2_38 [gnd] bounty_37_ d_lut_BUFX2
ABUFX2_39 [gnd] bounty_38_ d_lut_BUFX2
ABUFX2_40 [gnd] bounty_39_ d_lut_BUFX2
ABUFX2_41 [gnd] bounty_40_ d_lut_BUFX2
ABUFX2_42 [gnd] bounty_41_ d_lut_BUFX2
ABUFX2_43 [gnd] bounty_42_ d_lut_BUFX2
ABUFX2_44 [gnd] bounty_43_ d_lut_BUFX2
ABUFX2_45 [gnd] bounty_44_ d_lut_BUFX2
ABUFX2_46 [gnd] bounty_45_ d_lut_BUFX2
ABUFX2_47 [gnd] bounty_46_ d_lut_BUFX2
ABUFX2_48 [gnd] bounty_47_ d_lut_BUFX2
ABUFX2_49 [gnd] bounty_48_ d_lut_BUFX2
ABUFX2_50 [gnd] bounty_49_ d_lut_BUFX2
ABUFX2_51 [gnd] bounty_50_ d_lut_BUFX2
ABUFX2_52 [gnd] bounty_51_ d_lut_BUFX2
ABUFX2_53 [gnd] bounty_52_ d_lut_BUFX2
ABUFX2_54 [gnd] bounty_53_ d_lut_BUFX2
ABUFX2_55 [gnd] bounty_54_ d_lut_BUFX2
ABUFX2_56 [gnd] bounty_55_ d_lut_BUFX2
ABUFX2_57 [gnd] bounty_56_ d_lut_BUFX2
ABUFX2_58 [gnd] bounty_57_ d_lut_BUFX2
ABUFX2_59 [gnd] bounty_58_ d_lut_BUFX2
ABUFX2_60 [gnd] bounty_59_ d_lut_BUFX2
ABUFX2_61 [gnd] bounty_60_ d_lut_BUFX2
ABUFX2_62 [gnd] bounty_61_ d_lut_BUFX2
ABUFX2_63 [gnd] bounty_62_ d_lut_BUFX2
ABUFX2_64 [gnd] bounty_63_ d_lut_BUFX2
ABUFX2_65 [gnd] bounty_64_ d_lut_BUFX2
ABUFX2_66 [gnd] bounty_65_ d_lut_BUFX2
ABUFX2_67 [gnd] bounty_66_ d_lut_BUFX2
ABUFX2_68 [gnd] bounty_67_ d_lut_BUFX2
ABUFX2_69 [gnd] bounty_68_ d_lut_BUFX2
ABUFX2_70 [gnd] bounty_69_ d_lut_BUFX2
ABUFX2_71 [gnd] bounty_70_ d_lut_BUFX2
ABUFX2_72 [gnd] bounty_71_ d_lut_BUFX2
ABUFX2_73 [gnd] bounty_72_ d_lut_BUFX2
ABUFX2_74 [gnd] bounty_73_ d_lut_BUFX2
ABUFX2_75 [gnd] bounty_74_ d_lut_BUFX2
ABUFX2_76 [gnd] bounty_75_ d_lut_BUFX2
ABUFX2_77 [gnd] bounty_76_ d_lut_BUFX2
ABUFX2_78 [gnd] bounty_77_ d_lut_BUFX2
ABUFX2_79 [gnd] bounty_78_ d_lut_BUFX2
ABUFX2_80 [gnd] bounty_79_ d_lut_BUFX2
ABUFX2_81 [gnd] bounty_80_ d_lut_BUFX2
ABUFX2_82 [gnd] bounty_81_ d_lut_BUFX2
ABUFX2_83 [gnd] bounty_82_ d_lut_BUFX2
ABUFX2_84 [gnd] bounty_83_ d_lut_BUFX2
ABUFX2_85 [gnd] bounty_84_ d_lut_BUFX2
ABUFX2_86 [gnd] bounty_85_ d_lut_BUFX2
ABUFX2_87 [gnd] bounty_86_ d_lut_BUFX2
ABUFX2_88 [gnd] bounty_87_ d_lut_BUFX2
ABUFX2_89 [gnd] bounty_88_ d_lut_BUFX2
ABUFX2_90 [gnd] bounty_89_ d_lut_BUFX2
ABUFX2_91 [gnd] bounty_90_ d_lut_BUFX2
ABUFX2_92 [gnd] bounty_91_ d_lut_BUFX2
ABUFX2_93 [gnd] bounty_92_ d_lut_BUFX2
ABUFX2_94 [gnd] bounty_93_ d_lut_BUFX2
ABUFX2_95 [gnd] bounty_94_ d_lut_BUFX2
ABUFX2_96 [gnd] bounty_95_ d_lut_BUFX2
ABUFX2_97 [gnd] bounty_96_ d_lut_BUFX2
ABUFX2_98 [gnd] bounty_97_ d_lut_BUFX2
ABUFX2_99 [gnd] bounty_98_ d_lut_BUFX2
ABUFX2_100 [gnd] bounty_99_ d_lut_BUFX2
ABUFX2_101 [gnd] bounty_100_ d_lut_BUFX2
ABUFX2_102 [gnd] bounty_101_ d_lut_BUFX2
ABUFX2_103 [gnd] bounty_102_ d_lut_BUFX2
ABUFX2_104 [gnd] bounty_103_ d_lut_BUFX2
ABUFX2_105 [gnd] bounty_104_ d_lut_BUFX2
ABUFX2_106 [gnd] bounty_105_ d_lut_BUFX2
ABUFX2_107 [gnd] bounty_106_ d_lut_BUFX2
ABUFX2_108 [gnd] bounty_107_ d_lut_BUFX2
ABUFX2_109 [gnd] bounty_108_ d_lut_BUFX2
ABUFX2_110 [gnd] bounty_109_ d_lut_BUFX2
ABUFX2_111 [gnd] bounty_110_ d_lut_BUFX2
ABUFX2_112 [gnd] bounty_111_ d_lut_BUFX2
ABUFX2_113 [gnd] bounty_112_ d_lut_BUFX2
ABUFX2_114 [gnd] bounty_113_ d_lut_BUFX2
ABUFX2_115 [gnd] bounty_114_ d_lut_BUFX2
ABUFX2_116 [gnd] bounty_115_ d_lut_BUFX2
ABUFX2_117 [gnd] bounty_116_ d_lut_BUFX2
ABUFX2_118 [gnd] bounty_117_ d_lut_BUFX2
ABUFX2_119 [gnd] bounty_118_ d_lut_BUFX2
ABUFX2_120 [gnd] bounty_119_ d_lut_BUFX2
ABUFX2_121 [gnd] bounty_120_ d_lut_BUFX2
ABUFX2_122 [gnd] bounty_121_ d_lut_BUFX2
ABUFX2_123 [gnd] bounty_122_ d_lut_BUFX2
ABUFX2_124 [gnd] bounty_123_ d_lut_BUFX2
ABUFX2_125 [_1_] terminado d_lut_BUFX2
AINVX2_1 [_503_] _867_ d_lut_INVX2
ANAND3X1_1 [bloque_datos_22_ _857_ _861_] _868_ d_lut_NAND3X1
ANAND3X1_2 [_802_ _863_ _864_] _869_ d_lut_NAND3X1
AAOI21X1_1 [_868_ _869_ _867_] _870_ d_lut_AOI21X1
AOAI21X1_1 [_866_ _870_ _801_] _871_ d_lut_OAI21X1
ANAND2X1_1 [_508_ _512_] _872_ d_lut_NAND2X1
ANAND3X1_3 [_867_ _868_ _869_] _873_ d_lut_NAND3X1
ANAND3X1_4 [_503_ _862_ _865_] _874_ d_lut_NAND3X1
ANAND3X1_5 [_872_ _873_ _874_] _875_ d_lut_NAND3X1
ANOR2X1_1 [_3322_ _3326_] _876_ d_lut_NOR2X1
AINVX1_1 [bloque_datos_10_] _877_ d_lut_INVX1
AOR2X2_1 [_855_ _877_] _878_ d_lut_OR2X2
ANAND2X1_2 [_877_ _855_] _879_ d_lut_NAND2X1
AAND2X2_1 [_878_ _879_] _880_ d_lut_AND2X2
ANOR2X1_2 [_320_ _880_] _881_ d_lut_NOR2X1
AAND2X2_2 [_880_ _320_] _882_ d_lut_AND2X2
AOAI21X1_2 [_882_ _881_ _324_] _883_ d_lut_OAI21X1
AINVX2_2 [_324_] _884_ d_lut_INVX2
ANOR2X1_3 [_881_ _882_] _885_ d_lut_NOR2X1
ANAND2X1_3 [_884_ _885_] _886_ d_lut_NAND2X1
ANAND2X1_4 [_883_ _886_] _887_ d_lut_NAND2X1
AXNOR2X1_1 [_876_ _887_] _888_ d_lut_XNOR2X1
ANAND3X1_6 [_888_ _875_ _871_] _889_ d_lut_NAND3X1
AAOI21X1_2 [_873_ _874_ _872_] _890_ d_lut_AOI21X1
ANAND3X1_7 [_867_ _862_ _865_] _891_ d_lut_NAND3X1
ANAND3X1_8 [_503_ _868_ _869_] _892_ d_lut_NAND3X1
AAOI21X1_3 [_891_ _892_ _801_] _893_ d_lut_AOI21X1
AINVX1_2 [_888_] _894_ d_lut_INVX1
AOAI21X1_3 [_893_ _890_ _894_] _895_ d_lut_OAI21X1
ANAND3X1_9 [_800_ _889_ _895_] _896_ d_lut_NAND3X1
ANAND3X1_10 [_894_ _875_ _871_] _897_ d_lut_NAND3X1
AOAI21X1_4 [_893_ _890_ _888_] _898_ d_lut_OAI21X1
ANAND3X1_11 [bloque_datos_38_ _897_ _898_] _899_ d_lut_NAND3X1
AAOI21X1_4 [_896_ _899_ _524_] _900_ d_lut_AOI21X1
AINVX2_3 [_524_] _901_ d_lut_INVX2
ANAND3X1_12 [bloque_datos_38_ _889_ _895_] _902_ d_lut_NAND3X1
ANAND3X1_13 [_800_ _897_ _898_] _903_ d_lut_NAND3X1
AAOI21X1_5 [_902_ _903_ _901_] _904_ d_lut_AOI21X1
AOAI21X1_5 [_900_ _904_ _799_] _905_ d_lut_OAI21X1
ANAND2X1_5 [_529_ _533_] _906_ d_lut_NAND2X1
ANAND3X1_14 [_901_ _902_ _903_] _907_ d_lut_NAND3X1
ANAND3X1_15 [_524_ _896_ _899_] _908_ d_lut_NAND3X1
ANAND3X1_16 [_906_ _907_ _908_] _909_ d_lut_NAND3X1
ANOR2X1_4 [_3333_ _3337_] _910_ d_lut_NOR2X1
ANAND3X1_17 [bloque_datos_26_ _883_ _886_] _911_ d_lut_NAND3X1
AINVX1_3 [bloque_datos_26_] _912_ d_lut_INVX1
AINVX1_4 [_883_] _913_ d_lut_INVX1
AAND2X2_3 [_885_ _884_] _914_ d_lut_AND2X2
AOAI21X1_6 [_914_ _913_ _912_] _915_ d_lut_OAI21X1
AAOI21X1_6 [_911_ _915_ _327_] _916_ d_lut_AOI21X1
AINVX1_5 [_327_] _917_ d_lut_INVX1
ANOR3X1_1 [_913_ _912_ _914_] _918_ d_lut_NOR3X1
AAOI21X1_7 [_883_ _886_ bloque_datos_26_] _919_ d_lut_AOI21X1
ANOR3X1_2 [_917_ _919_ _918_] _920_ d_lut_NOR3X1
AOAI21X1_7 [_920_ _916_ _331_] _921_ d_lut_OAI21X1
AINVX2_4 [_331_] _922_ d_lut_INVX2
ANOR2X1_5 [_916_ _920_] _923_ d_lut_NOR2X1
ANAND2X1_6 [_922_ _923_] _924_ d_lut_NAND2X1
ANAND2X1_7 [_921_ _924_] _925_ d_lut_NAND2X1
AXNOR2X1_2 [_910_ _925_] _926_ d_lut_XNOR2X1
ANAND3X1_18 [_909_ _926_ _905_] _927_ d_lut_NAND3X1
AAOI21X1_8 [_907_ _908_ _906_] _928_ d_lut_AOI21X1
ANAND3X1_19 [_901_ _896_ _899_] _929_ d_lut_NAND3X1
ANAND3X1_20 [_524_ _902_ _903_] _930_ d_lut_NAND3X1
AAOI22X1_1 [_529_ _533_ _929_ _930_] _931_ d_lut_AOI22X1
AINVX1_6 [_926_] _932_ d_lut_INVX1
AOAI21X1_8 [_931_ _928_ _932_] _933_ d_lut_OAI21X1
ANAND3X1_21 [_798_ _927_ _933_] _934_ d_lut_NAND3X1
ANAND3X1_22 [_909_ _932_ _905_] _935_ d_lut_NAND3X1
AOAI21X1_9 [_931_ _928_ _926_] _936_ d_lut_OAI21X1
ANAND3X1_23 [bloque_datos_54_ _935_ _936_] _937_ d_lut_NAND3X1
AAOI21X1_9 [_934_ _937_ _545_] _938_ d_lut_AOI21X1
AINVX2_5 [_545_] _939_ d_lut_INVX2
ANAND3X1_24 [bloque_datos_54_ _927_ _933_] _940_ d_lut_NAND3X1
ANAND3X1_25 [_798_ _935_ _936_] _941_ d_lut_NAND3X1
AAOI21X1_10 [_940_ _941_ _939_] _942_ d_lut_AOI21X1
AOAI21X1_10 [_938_ _942_ _797_] _943_ d_lut_OAI21X1
ANAND2X1_8 [_550_ _554_] _944_ d_lut_NAND2X1
ANAND3X1_26 [_939_ _940_ _941_] _945_ d_lut_NAND3X1
ANAND3X1_27 [_545_ _934_ _937_] _946_ d_lut_NAND3X1
ANAND3X1_28 [_944_ _945_ _946_] _947_ d_lut_NAND3X1
AINVX1_7 [_338_] _948_ d_lut_INVX1
ANAND3X1_29 [bloque_datos_42_ _921_ _924_] _949_ d_lut_NAND3X1
AINVX1_8 [bloque_datos_42_] _950_ d_lut_INVX1
AINVX1_9 [_921_] _951_ d_lut_INVX1
AAND2X2_4 [_923_ _922_] _952_ d_lut_AND2X2
AOAI21X1_11 [_952_ _951_ _950_] _953_ d_lut_OAI21X1
AAOI21X1_11 [_949_ _953_ _334_] _954_ d_lut_AOI21X1
AINVX1_10 [_954_] _955_ d_lut_INVX1
ANAND3X1_30 [_334_ _949_ _953_] _956_ d_lut_NAND3X1
AAOI21X1_12 [_956_ _955_ _948_] _957_ d_lut_AOI21X1
AINVX2_6 [_956_] _958_ d_lut_INVX2
ANOR3X1_3 [_338_ _954_ _958_] _959_ d_lut_NOR3X1
ANOR2X1_6 [_957_ _959_] _960_ d_lut_NOR2X1
AOAI21X1_12 [_3349_ _3346_ _960_] _961_ d_lut_OAI21X1
ANOR2X1_7 [_3346_ _3349_] _962_ d_lut_NOR2X1
AOAI21X1_13 [_957_ _959_ _962_] _963_ d_lut_OAI21X1
ANAND2X1_9 [_961_ _963_] _964_ d_lut_NAND2X1
ANAND3X1_31 [_947_ _964_ _943_] _965_ d_lut_NAND3X1
AAOI21X1_13 [_945_ _946_ _944_] _966_ d_lut_AOI21X1
ANAND3X1_32 [_939_ _934_ _937_] _967_ d_lut_NAND3X1
ANAND3X1_33 [_545_ _940_ _941_] _968_ d_lut_NAND3X1
AAOI21X1_14 [_967_ _968_ _797_] _969_ d_lut_AOI21X1
AINVX1_11 [_964_] _970_ d_lut_INVX1
AOAI21X1_14 [_969_ _966_ _970_] _971_ d_lut_OAI21X1
ANAND3X1_34 [_796_ _965_ _971_] _972_ d_lut_NAND3X1
AOAI21X1_15 [_966_ _969_ _964_] _973_ d_lut_OAI21X1
ANAND3X1_35 [_947_ _970_ _943_] _974_ d_lut_NAND3X1
ANAND3X1_36 [bloque_datos_70_ _974_ _973_] _975_ d_lut_NAND3X1
AAOI21X1_15 [_972_ _975_ _566_] _976_ d_lut_AOI21X1
AINVX2_7 [_566_] _977_ d_lut_INVX2
ANAND3X1_37 [bloque_datos_70_ _965_ _971_] _978_ d_lut_NAND3X1
ANAND3X1_38 [_796_ _974_ _973_] _979_ d_lut_NAND3X1
AAOI21X1_16 [_978_ _979_ _977_] _980_ d_lut_AOI21X1
AOAI21X1_16 [_976_ _980_ _795_] _981_ d_lut_OAI21X1
ANAND2X1_10 [_571_ _575_] _982_ d_lut_NAND2X1
ANAND3X1_39 [_977_ _978_ _979_] _983_ d_lut_NAND3X1
ANAND3X1_40 [_566_ _972_ _975_] _984_ d_lut_NAND3X1
ANAND3X1_41 [_982_ _983_ _984_] _985_ d_lut_NAND3X1
AINVX1_12 [_344_] _986_ d_lut_INVX1
AINVX1_13 [_341_] _987_ d_lut_INVX1
AINVX1_14 [bloque_datos_58_] _988_ d_lut_INVX1
ANOR3X1_4 [_957_ _988_ _959_] _989_ d_lut_NOR3X1
AOAI21X1_17 [_958_ _954_ _338_] _990_ d_lut_OAI21X1
ANAND3X1_42 [_948_ _956_ _955_] _991_ d_lut_NAND3X1
AAOI21X1_17 [_990_ _991_ bloque_datos_58_] _992_ d_lut_AOI21X1
AOAI21X1_18 [_989_ _992_ _987_] _993_ d_lut_OAI21X1
ANAND3X1_43 [bloque_datos_58_ _990_ _991_] _994_ d_lut_NAND3X1
AOAI21X1_19 [_959_ _957_ _988_] _995_ d_lut_OAI21X1
ANAND3X1_44 [_341_ _994_ _995_] _996_ d_lut_NAND3X1
AAOI21X1_18 [_996_ _993_ _986_] _997_ d_lut_AOI21X1
AAOI21X1_19 [_994_ _995_ _341_] _998_ d_lut_AOI21X1
ANOR3X1_5 [_987_ _992_ _989_] _999_ d_lut_NOR3X1
ANOR3X1_6 [_344_ _998_ _999_] _1000_ d_lut_NOR3X1
ANOR2X1_8 [_997_ _1000_] _1001_ d_lut_NOR2X1
AOAI21X1_20 [_3361_ _3358_ _1001_] _1002_ d_lut_OAI21X1
ANOR2X1_9 [_3358_ _3361_] _1003_ d_lut_NOR2X1
AOAI21X1_21 [_997_ _1000_ _1003_] _1004_ d_lut_OAI21X1
ANAND2X1_11 [_1002_ _1004_] _1005_ d_lut_NAND2X1
ANAND3X1_45 [_985_ _1005_ _981_] _1006_ d_lut_NAND3X1
AAOI21X1_20 [_983_ _984_ _982_] _1007_ d_lut_AOI21X1
ANAND3X1_46 [_977_ _972_ _975_] _1008_ d_lut_NAND3X1
ANAND3X1_47 [_566_ _978_ _979_] _1009_ d_lut_NAND3X1
AAOI21X1_21 [_1008_ _1009_ _795_] _1010_ d_lut_AOI21X1
AINVX1_15 [_1005_] _1011_ d_lut_INVX1
AOAI21X1_22 [_1010_ _1007_ _1011_] _1012_ d_lut_OAI21X1
ANAND3X1_48 [_794_ _1006_ _1012_] _1013_ d_lut_NAND3X1
ANAND3X1_49 [_985_ _1011_ _981_] _1014_ d_lut_NAND3X1
AOAI21X1_23 [_1010_ _1007_ _1005_] _1015_ d_lut_OAI21X1
ANAND3X1_50 [bloque_datos_86_ _1014_ _1015_] _1016_ d_lut_NAND3X1
AAOI21X1_22 [_1013_ _1016_ _588_] _1017_ d_lut_AOI21X1
AINVX2_8 [_588_] _1018_ d_lut_INVX2
ANAND3X1_51 [bloque_datos_86_ _1006_ _1012_] _1019_ d_lut_NAND3X1
ANAND3X1_52 [_794_ _1014_ _1015_] _1020_ d_lut_NAND3X1
AAOI21X1_23 [_1019_ _1020_ _1018_] _1021_ d_lut_AOI21X1
AOAI21X1_24 [_1017_ _1021_ _793_] _1022_ d_lut_OAI21X1
ANAND2X1_12 [_593_ _597_] _1023_ d_lut_NAND2X1
ANAND3X1_53 [_1018_ _1019_ _1020_] _1024_ d_lut_NAND3X1
ANAND3X1_54 [_588_ _1013_ _1016_] _1025_ d_lut_NAND3X1
ANAND3X1_55 [_1023_ _1024_ _1025_] _1026_ d_lut_NAND3X1
ANOR2X1_10 [_3370_ _3373_] _1027_ d_lut_NOR2X1
AINVX2_9 [_1027_] _1028_ d_lut_INVX2
AOAI21X1_25 [_999_ _998_ _344_] _1029_ d_lut_OAI21X1
ANAND3X1_56 [_996_ _986_ _993_] _1030_ d_lut_NAND3X1
ANAND3X1_57 [bloque_datos_74_ _1030_ _1029_] _1031_ d_lut_NAND3X1
AINVX1_16 [bloque_datos_74_] _1032_ d_lut_INVX1
AOAI21X1_26 [_1000_ _997_ _1032_] _1033_ d_lut_OAI21X1
AAOI21X1_24 [_1031_ _1033_ _347_] _1034_ d_lut_AOI21X1
AINVX1_17 [_347_] _1035_ d_lut_INVX1
ANOR3X1_7 [_1032_ _997_ _1000_] _1036_ d_lut_NOR3X1
AAOI21X1_25 [_1030_ _1029_ bloque_datos_74_] _1037_ d_lut_AOI21X1
ANOR3X1_8 [_1035_ _1037_ _1036_] _1038_ d_lut_NOR3X1
AOAI21X1_27 [_1038_ _1034_ _350_] _1039_ d_lut_OAI21X1
ANOR2X1_11 [_91_ _349_] _1040_ d_lut_NOR2X1
AOAI21X1_28 [_1036_ _1037_ _1035_] _1041_ d_lut_OAI21X1
ANAND3X1_58 [_347_ _1031_ _1033_] _1042_ d_lut_NAND3X1
ANAND3X1_59 [_1042_ _1040_ _1041_] _1043_ d_lut_NAND3X1
ANAND3X1_60 [_1039_ _1043_ _1028_] _1044_ d_lut_NAND3X1
ANAND2X1_13 [_1043_ _1039_] _1045_ d_lut_NAND2X1
ANAND2X1_14 [_1045_ _1027_] _1046_ d_lut_NAND2X1
ANAND2X1_15 [_1046_ _1044_] _1047_ d_lut_NAND2X1
ANAND3X1_61 [_1026_ _1047_ _1022_] _1048_ d_lut_NAND3X1
AAOI21X1_26 [_1024_ _1025_ _1023_] _1049_ d_lut_AOI21X1
ANAND3X1_62 [_1018_ _1013_ _1016_] _1050_ d_lut_NAND3X1
ANAND3X1_63 [_588_ _1019_ _1020_] _1051_ d_lut_NAND3X1
AAOI21X1_27 [_1050_ _1051_ _793_] _1052_ d_lut_AOI21X1
AINVX1_18 [_1047_] _1053_ d_lut_INVX1
AOAI21X1_29 [_1052_ _1049_ _1053_] _1054_ d_lut_OAI21X1
ANAND3X1_64 [_792_ _1048_ _1054_] _1055_ d_lut_NAND3X1
ANAND3X1_65 [_1026_ _1053_ _1022_] _1056_ d_lut_NAND3X1
AOAI21X1_30 [_1052_ _1049_ _1047_] _1057_ d_lut_OAI21X1
ANAND3X1_66 [W_134_ _1056_ _1057_] _1058_ d_lut_NAND3X1
AAOI21X1_28 [_1055_ _1058_ _609_] _1059_ d_lut_AOI21X1
AINVX2_10 [_609_] _1060_ d_lut_INVX2
ANAND3X1_67 [W_134_ _1048_ _1054_] _1061_ d_lut_NAND3X1
ANAND3X1_68 [_792_ _1056_ _1057_] _1062_ d_lut_NAND3X1
AAOI21X1_29 [_1061_ _1062_ _1060_] _1063_ d_lut_AOI21X1
AOAI21X1_31 [_1059_ _1063_ _791_] _1064_ d_lut_OAI21X1
ANAND2X1_16 [_626_ _618_] _1065_ d_lut_NAND2X1
ANAND3X1_69 [_1060_ _1061_ _1062_] _1066_ d_lut_NAND3X1
ANAND3X1_70 [_609_ _1055_ _1058_] _1067_ d_lut_NAND3X1
ANAND3X1_71 [_1065_ _1066_ _1067_] _1068_ d_lut_NAND3X1
AXNOR2X1_3 [_1045_ bloque_datos_90_] _1069_ d_lut_XNOR2X1
ANOR2X1_12 [_354_ _1069_] _1070_ d_lut_NOR2X1
AAND2X2_5 [_1069_ _354_] _1071_ d_lut_AND2X2
AOAI21X1_32 [_1071_ _1070_ _358_] _1072_ d_lut_OAI21X1
ANOR2X1_13 [_1070_ _1071_] _1073_ d_lut_NOR2X1
ANAND2X1_17 [_357_ _1073_] _1074_ d_lut_NAND2X1
ANAND2X1_18 [_1072_ _1074_] _1075_ d_lut_NAND2X1
ANAND3X1_72 [_1068_ _1075_ _1064_] _1076_ d_lut_NAND3X1
AAOI21X1_30 [_1066_ _1067_ _1065_] _1077_ d_lut_AOI21X1
ANAND3X1_73 [_1060_ _1055_ _1058_] _1078_ d_lut_NAND3X1
ANAND3X1_74 [_609_ _1061_ _1062_] _1079_ d_lut_NAND3X1
AAOI21X1_31 [_1078_ _1079_ _791_] _1080_ d_lut_AOI21X1
AAND2X2_6 [_1074_ _1072_] _1081_ d_lut_AND2X2
AOAI21X1_33 [_1080_ _1077_ _1081_] _1082_ d_lut_OAI21X1
ANAND3X1_75 [_790_ _1076_ _1082_] _1083_ d_lut_NAND3X1
ANAND2X1_19 [_788_ _1083_] _1084_ d_lut_NAND2X1
AOAI21X1_34 [_1080_ _1077_ _1075_] _1085_ d_lut_OAI21X1
ANAND3X1_76 [_1068_ _1081_ _1064_] _1086_ d_lut_NAND3X1
AAOI21X1_32 [_1086_ _1085_ _789_] _1087_ d_lut_AOI21X1
ANAND2X1_20 [W_150_ _1087_] _1088_ d_lut_NAND2X1
ANAND3X1_77 [_638_ _1084_ _1088_] _1089_ d_lut_NAND3X1
ANAND2X1_21 [W_150_ _1083_] _1090_ d_lut_NAND2X1
ANAND2X1_22 [_788_ _1087_] _1091_ d_lut_NAND2X1
ANAND3X1_78 [_635_ _1090_ _1091_] _1092_ d_lut_NAND3X1
ANAND3X1_79 [_787_ _1089_ _1092_] _1093_ d_lut_NAND3X1
ANAND2X1_23 [_636_ _640_] _1094_ d_lut_NAND2X1
ANAND3X1_80 [_638_ _1090_ _1091_] _1095_ d_lut_NAND3X1
ANAND3X1_81 [_635_ _1084_ _1088_] _1096_ d_lut_NAND3X1
ANAND3X1_82 [_1094_ _1096_ _1095_] _1097_ d_lut_NAND3X1
ANAND2X1_24 [W_138_ _1081_] _1098_ d_lut_NAND2X1
AINVX1_19 [W_138_] _1099_ d_lut_INVX1
ANAND2X1_25 [_1099_ _1075_] _1100_ d_lut_NAND2X1
ANAND2X1_26 [_1100_ _1098_] _1101_ d_lut_NAND2X1
AXNOR2X1_4 [_1101_ _362_] _1102_ d_lut_XNOR2X1
AOAI21X1_35 [_301_ _365_ _1102_] _1103_ d_lut_OAI21X1
AOR2X2_2 [_1102_ _367_] _1104_ d_lut_OR2X2
ANAND2X1_27 [_1103_ _1104_] _1105_ d_lut_NAND2X1
ANAND3X1_83 [_1105_ _1093_ _1097_] _1106_ d_lut_NAND3X1
AAOI21X1_33 [_1096_ _1095_ _1094_] _1107_ d_lut_AOI21X1
AAOI21X1_34 [_1089_ _1092_ _787_] _1108_ d_lut_AOI21X1
AINVX2_11 [_1105_] _1109_ d_lut_INVX2
AOAI21X1_36 [_1107_ _1108_ _1109_] _1110_ d_lut_OAI21X1
ANAND3X1_84 [_785_ _1106_ _1110_] _1111_ d_lut_NAND3X1
ANAND2X1_28 [_783_ _1111_] _1112_ d_lut_NAND2X1
AOAI21X1_37 [_1107_ _1108_ _1105_] _1113_ d_lut_OAI21X1
ANAND3X1_85 [_1109_ _1093_ _1097_] _1114_ d_lut_NAND3X1
AAOI21X1_35 [_1114_ _1113_ _784_] _1115_ d_lut_AOI21X1
ANAND2X1_29 [W_166_ _1115_] _1116_ d_lut_NAND2X1
ANAND3X1_86 [_654_ _1112_ _1116_] _1117_ d_lut_NAND3X1
ANAND2X1_30 [W_166_ _1111_] _1118_ d_lut_NAND2X1
ANAND2X1_31 [_783_ _1115_] _1119_ d_lut_NAND2X1
ANAND3X1_87 [_651_ _1118_ _1119_] _1120_ d_lut_NAND3X1
ANAND3X1_88 [_782_ _1117_ _1120_] _1121_ d_lut_NAND3X1
ANAND2X1_32 [_652_ _656_] _1122_ d_lut_NAND2X1
ANAND3X1_89 [_654_ _1118_ _1119_] _1123_ d_lut_NAND3X1
ANAND3X1_90 [_651_ _1112_ _1116_] _1124_ d_lut_NAND3X1
ANAND3X1_91 [_1123_ _1124_ _1122_] _1125_ d_lut_NAND3X1
AINVX1_20 [W_154_] _1126_ d_lut_INVX1
ANOR2X1_14 [_1126_ _1105_] _1127_ d_lut_NOR2X1
ANOR2X1_15 [W_154_ _1109_] _1128_ d_lut_NOR2X1
AOAI21X1_38 [_1128_ _1127_ _371_] _1129_ d_lut_OAI21X1
AINVX1_21 [_1129_] _1130_ d_lut_INVX1
ANOR3X1_9 [_371_ _1127_ _1128_] _1131_ d_lut_NOR3X1
AOAI21X1_39 [_1130_ _1131_ _374_] _1132_ d_lut_OAI21X1
AINVX1_22 [_374_] _1133_ d_lut_INVX1
AINVX1_23 [_1131_] _1134_ d_lut_INVX1
ANAND3X1_92 [_1133_ _1129_ _1134_] _1135_ d_lut_NAND3X1
ANAND2X1_33 [_1132_ _1135_] _1136_ d_lut_NAND2X1
ANAND3X1_93 [_1121_ _1136_ _1125_] _1137_ d_lut_NAND3X1
AAOI21X1_36 [_1123_ _1124_ _1122_] _1138_ d_lut_AOI21X1
AAOI21X1_37 [_1117_ _1120_ _782_] _1139_ d_lut_AOI21X1
AAND2X2_7 [_1135_ _1132_] _1140_ d_lut_AND2X2
AOAI21X1_40 [_1138_ _1139_ _1140_] _1141_ d_lut_OAI21X1
ANAND3X1_94 [_780_ _1137_ _1141_] _1142_ d_lut_NAND3X1
ANAND2X1_34 [_778_ _1142_] _1143_ d_lut_NAND2X1
ANAND3X1_95 [_1121_ _1140_ _1125_] _1144_ d_lut_NAND3X1
AOAI21X1_41 [_1138_ _1139_ _1136_] _1145_ d_lut_OAI21X1
ANAND2X1_35 [_1144_ _1145_] _1146_ d_lut_NAND2X1
ANAND3X1_96 [W_182_ _780_ _1146_] _1147_ d_lut_NAND3X1
ANAND3X1_97 [_673_ _1147_ _1143_] _1148_ d_lut_NAND3X1
ANAND2X1_36 [W_182_ _1142_] _1149_ d_lut_NAND2X1
ANAND3X1_98 [_778_ _780_ _1146_] _1150_ d_lut_NAND3X1
ANAND3X1_99 [_670_ _1150_ _1149_] _1151_ d_lut_NAND3X1
ANAND3X1_100 [_777_ _1148_ _1151_] _1152_ d_lut_NAND3X1
AINVX1_24 [_674_] _1153_ d_lut_INVX1
AOAI21X1_42 [_1153_ _676_ _671_] _1154_ d_lut_OAI21X1
ANAND3X1_101 [_673_ _1150_ _1149_] _1155_ d_lut_NAND3X1
ANAND3X1_102 [_670_ _1147_ _1143_] _1156_ d_lut_NAND3X1
ANAND3X1_103 [_1155_ _1156_ _1154_] _1157_ d_lut_NAND3X1
AINVX1_25 [_379_] _1158_ d_lut_INVX1
AAND2X2_8 [_1140_ W_170_] _1159_ d_lut_AND2X2
ANOR2X1_16 [W_170_ _1140_] _1160_ d_lut_NOR2X1
AOAI21X1_43 [_1159_ _1160_ _1158_] _1161_ d_lut_OAI21X1
AINVX1_26 [_1161_] _1162_ d_lut_INVX1
ANOR2X1_17 [_1160_ _1159_] _1163_ d_lut_NOR2X1
AAND2X2_9 [_1163_ _379_] _1164_ d_lut_AND2X2
AOAI21X1_44 [_1164_ _1162_ _383_] _1165_ d_lut_OAI21X1
AINVX1_27 [_383_] _1166_ d_lut_INVX1
ANAND2X1_37 [_379_ _1163_] _1167_ d_lut_NAND2X1
ANAND3X1_104 [_1166_ _1161_ _1167_] _1168_ d_lut_NAND3X1
ANAND2X1_38 [_1168_ _1165_] _1169_ d_lut_NAND2X1
ANAND3X1_105 [_1169_ _1152_ _1157_] _1170_ d_lut_NAND3X1
AAOI21X1_38 [_1155_ _1156_ _1154_] _1171_ d_lut_AOI21X1
AAOI21X1_39 [_1148_ _1151_ _777_] _1172_ d_lut_AOI21X1
AAND2X2_10 [_1165_ _1168_] _1173_ d_lut_AND2X2
AOAI21X1_45 [_1171_ _1172_ _1173_] _1174_ d_lut_OAI21X1
ANAND3X1_106 [_775_ _1170_ _1174_] _1175_ d_lut_NAND3X1
ANAND2X1_39 [_773_ _1175_] _1176_ d_lut_NAND2X1
AOAI21X1_46 [_1171_ _1172_ _1169_] _1177_ d_lut_OAI21X1
ANAND3X1_107 [_1173_ _1152_ _1157_] _1178_ d_lut_NAND3X1
ANAND2X1_40 [_1178_ _1177_] _1179_ d_lut_NAND2X1
ANAND3X1_108 [W_198_ _775_ _1179_] _1180_ d_lut_NAND3X1
ANAND3X1_109 [_692_ _1176_ _1180_] _1181_ d_lut_NAND3X1
ANAND2X1_41 [W_198_ _1175_] _1182_ d_lut_NAND2X1
AAOI21X1_40 [_1178_ _1177_ _774_] _1183_ d_lut_AOI21X1
ANAND2X1_42 [_773_ _1183_] _1184_ d_lut_NAND2X1
ANAND3X1_110 [_689_ _1182_ _1184_] _1185_ d_lut_NAND3X1
ANAND3X1_111 [_772_ _1181_ _1185_] _1186_ d_lut_NAND3X1
ANOR3X1_10 [_685_ _427_ _689_] _1187_ d_lut_NOR3X1
AOAI21X1_47 [_1187_ _695_ _690_] _1188_ d_lut_OAI21X1
ANAND3X1_112 [_692_ _1182_ _1184_] _1189_ d_lut_NAND3X1
ANAND3X1_113 [_689_ _1176_ _1180_] _1190_ d_lut_NAND3X1
ANAND3X1_114 [_1188_ _1190_ _1189_] _1191_ d_lut_NAND3X1
AINVX2_12 [_391_] _1192_ d_lut_INVX2
AINVX1_28 [_387_] _1193_ d_lut_INVX1
AINVX1_29 [W_186_] _1194_ d_lut_INVX1
ANOR2X1_18 [_1194_ _1169_] _1195_ d_lut_NOR2X1
ANOR2X1_19 [W_186_ _1173_] _1196_ d_lut_NOR2X1
AOAI21X1_48 [_1196_ _1195_ _1193_] _1197_ d_lut_OAI21X1
ANOR2X1_20 [_1195_ _1196_] _1198_ d_lut_NOR2X1
ANAND2X1_43 [_387_ _1198_] _1199_ d_lut_NAND2X1
ANAND2X1_44 [_1197_ _1199_] _1200_ d_lut_NAND2X1
AXNOR2X1_5 [_1200_ _1192_] _1201_ d_lut_XNOR2X1
AINVX2_13 [_1201_] _1202_ d_lut_INVX2
AAOI21X1_41 [_1186_ _1191_ _1202_] _1203_ d_lut_AOI21X1
ANAND3X1_115 [_1202_ _1186_ _1191_] _1204_ d_lut_NAND3X1
AOAI21X1_49 [_3428_ _3432_ _1204_] _1205_ d_lut_OAI21X1
AOAI21X1_50 [_1205_ _1203_ _770_] _1206_ d_lut_OAI21X1
ANAND2X1_45 [_1186_ _1191_] _1207_ d_lut_NAND2X1
ANAND2X1_46 [_1201_ _1207_] _1208_ d_lut_NAND2X1
AINVX2_14 [_3437_] _1209_ d_lut_INVX2
AAND2X2_11 [_1204_ _1209_] _1210_ d_lut_AND2X2
ANAND3X1_116 [W_214_ _1208_ _1210_] _1211_ d_lut_NAND3X1
AAOI21X1_42 [_1206_ _1211_ _708_] _1212_ d_lut_AOI21X1
AOAI21X1_51 [_1205_ _1203_ W_214_] _1213_ d_lut_OAI21X1
ANAND3X1_117 [_770_ _1208_ _1210_] _1214_ d_lut_NAND3X1
AAOI21X1_43 [_1213_ _1214_ _711_] _1215_ d_lut_AOI21X1
AOAI21X1_52 [_1212_ _1215_ _769_] _1216_ d_lut_OAI21X1
ANOR3X1_11 [_704_ _424_ _708_] _1217_ d_lut_NOR3X1
AOAI21X1_53 [_1217_ _714_ _709_] _1218_ d_lut_OAI21X1
ANAND3X1_118 [_711_ _1213_ _1214_] _1219_ d_lut_NAND3X1
ANAND3X1_119 [_708_ _1206_ _1211_] _1220_ d_lut_NAND3X1
ANAND3X1_120 [_1219_ _1220_ _1218_] _1221_ d_lut_NAND3X1
AINVX2_15 [_395_] _1222_ d_lut_INVX2
ANAND2X1_47 [W_202_ _1201_] _1223_ d_lut_NAND2X1
AINVX2_16 [_1223_] _1224_ d_lut_INVX2
ANOR2X1_21 [W_202_ _1201_] _1225_ d_lut_NOR2X1
AOAI21X1_54 [_1224_ _1225_ _1222_] _1226_ d_lut_OAI21X1
AINVX1_30 [_1226_] _1227_ d_lut_INVX1
AOR2X2_3 [_1224_ _1225_] _1228_ d_lut_OR2X2
ANOR2X1_22 [_1222_ _1228_] _1229_ d_lut_NOR2X1
AOAI21X1_55 [_1229_ _1227_ _399_] _1230_ d_lut_OAI21X1
AINVX1_31 [_399_] _1231_ d_lut_INVX1
AOR2X2_4 [_1228_ _1222_] _1232_ d_lut_OR2X2
ANAND3X1_121 [_1231_ _1226_ _1232_] _1233_ d_lut_NAND3X1
ANAND2X1_48 [_1230_ _1233_] _1234_ d_lut_NAND2X1
ANAND3X1_122 [_1221_ _1234_ _1216_] _1235_ d_lut_NAND3X1
AAOI21X1_44 [_1219_ _1220_ _1218_] _1236_ d_lut_AOI21X1
ANAND3X1_123 [_711_ _1206_ _1211_] _1237_ d_lut_NAND3X1
ANAND3X1_124 [_708_ _1213_ _1214_] _1238_ d_lut_NAND3X1
AAOI21X1_45 [_1238_ _1237_ _769_] _1239_ d_lut_AOI21X1
AAND2X2_12 [_1233_ _1230_] _1240_ d_lut_AND2X2
AOAI21X1_56 [_1236_ _1239_ _1240_] _1241_ d_lut_OAI21X1
ANAND3X1_125 [_767_ _1235_ _1241_] _1242_ d_lut_NAND3X1
ANAND2X1_49 [_765_ _1242_] _1243_ d_lut_NAND2X1
ANAND3X1_126 [_1221_ _1240_ _1216_] _1244_ d_lut_NAND3X1
AOAI21X1_57 [_1236_ _1239_ _1234_] _1245_ d_lut_OAI21X1
AAOI21X1_46 [_1244_ _1245_ _766_] _1246_ d_lut_AOI21X1
ANAND2X1_50 [W_230_ _1246_] _1247_ d_lut_NAND2X1
AAOI21X1_47 [_1243_ _1247_ _727_] _1248_ d_lut_AOI21X1
ANAND2X1_51 [W_230_ _1242_] _1249_ d_lut_NAND2X1
ANAND2X1_52 [_765_ _1246_] _1250_ d_lut_NAND2X1
AAOI21X1_48 [_1249_ _1250_ _730_] _1251_ d_lut_AOI21X1
AOAI21X1_58 [_1248_ _1251_ _764_] _1252_ d_lut_OAI21X1
ANOR3X1_12 [_723_ _421_ _727_] _1253_ d_lut_NOR3X1
AOAI21X1_59 [_1253_ _733_ _728_] _1254_ d_lut_OAI21X1
ANAND3X1_127 [_730_ _1249_ _1250_] _1255_ d_lut_NAND3X1
ANAND3X1_128 [_727_ _1243_ _1247_] _1256_ d_lut_NAND3X1
ANAND3X1_129 [_1256_ _1255_ _1254_] _1257_ d_lut_NAND3X1
ANAND2X1_53 [W_218_ _1240_] _1258_ d_lut_NAND2X1
AINVX1_32 [W_218_] _1259_ d_lut_INVX1
ANAND2X1_54 [_1259_ _1234_] _1260_ d_lut_NAND2X1
AAOI21X1_49 [_1260_ _1258_ _403_] _1261_ d_lut_AOI21X1
AINVX1_33 [_403_] _1262_ d_lut_INVX1
ANAND2X1_55 [_1260_ _1258_] _1263_ d_lut_NAND2X1