*SPICE netlist created from BLIF module micro_ucr_hash_mod by blif2BSpice
.include /usr/share/qflow/tech/osu018/osu018_stdcells.sp
.subckt micro_ucr_hash_mod vdd gnd clk bloque_datos[0] bloque_datos[1] bloque_datos[2] bloque_datos[3] bloque_datos[4] bloque_datos[5] bloque_datos[6] bloque_datos[7] bloque_datos[8] bloque_datos[9] bloque_datos[10] bloque_datos[11] bloque_datos[12] bloque_datos[13] bloque_datos[14] bloque_datos[15] bloque_datos[16] bloque_datos[17] bloque_datos[18] bloque_datos[19] bloque_datos[20] bloque_datos[21] bloque_datos[22] bloque_datos[23] bloque_datos[24] bloque_datos[25] bloque_datos[26] bloque_datos[27] bloque_datos[28] bloque_datos[29] bloque_datos[30] bloque_datos[31] bloque_datos[32] bloque_datos[33] bloque_datos[34] bloque_datos[35] bloque_datos[36] bloque_datos[37] bloque_datos[38] bloque_datos[39] bloque_datos[40] bloque_datos[41] bloque_datos[42] bloque_datos[43] bloque_datos[44] bloque_datos[45] bloque_datos[46] bloque_datos[47] bloque_datos[48] bloque_datos[49] bloque_datos[50] bloque_datos[51] bloque_datos[52] bloque_datos[53] bloque_datos[54] bloque_datos[55] bloque_datos[56] bloque_datos[57] bloque_datos[58] bloque_datos[59] bloque_datos[60] bloque_datos[61] bloque_datos[62] bloque_datos[63] bloque_datos[64] bloque_datos[65] bloque_datos[66] bloque_datos[67] bloque_datos[68] bloque_datos[69] bloque_datos[70] bloque_datos[71] bloque_datos[72] bloque_datos[73] bloque_datos[74] bloque_datos[75] bloque_datos[76] bloque_datos[77] bloque_datos[78] bloque_datos[79] bloque_datos[80] bloque_datos[81] bloque_datos[82] bloque_datos[83] bloque_datos[84] bloque_datos[85] bloque_datos[86] bloque_datos[87] bloque_datos[88] bloque_datos[89] bloque_datos[90] bloque_datos[91] bloque_datos[92] bloque_datos[93] bloque_datos[94] bloque_datos[95] inicio nonce_iniciales[0] nonce_iniciales[1] nonce_iniciales[2] nonce_iniciales[3] nonce_iniciales[4] nonce_iniciales[5] nonce_iniciales[6] nonce_iniciales[7] nonce_iniciales[8] nonce_iniciales[9] nonce_iniciales[10] nonce_iniciales[11] nonce_iniciales[12] nonce_iniciales[13] nonce_iniciales[14] nonce_iniciales[15] nonce_iniciales[16] nonce_iniciales[17] nonce_iniciales[18] nonce_iniciales[19] nonce_iniciales[20] nonce_iniciales[21] nonce_iniciales[22] nonce_iniciales[23] nonce_iniciales[24] nonce_iniciales[25] nonce_iniciales[26] nonce_iniciales[27] nonce_iniciales[28] nonce_iniciales[29] nonce_iniciales[30] nonce_iniciales[31] nonce_iniciales[32] nonce_iniciales[33] nonce_iniciales[34] nonce_iniciales[35] nonce_iniciales[36] nonce_iniciales[37] nonce_iniciales[38] nonce_iniciales[39] nonce_iniciales[40] nonce_iniciales[41] nonce_iniciales[42] nonce_iniciales[43] nonce_iniciales[44] nonce_iniciales[45] nonce_iniciales[46] nonce_iniciales[47] nonce_iniciales[48] nonce_iniciales[49] nonce_iniciales[50] nonce_iniciales[51] nonce_iniciales[52] nonce_iniciales[53] nonce_iniciales[54] nonce_iniciales[55] nonce_iniciales[56] nonce_iniciales[57] nonce_iniciales[58] nonce_iniciales[59] nonce_iniciales[60] nonce_iniciales[61] nonce_iniciales[62] nonce_iniciales[63] nonce_iniciales[64] nonce_iniciales[65] nonce_iniciales[66] nonce_iniciales[67] nonce_iniciales[68] nonce_iniciales[69] nonce_iniciales[70] nonce_iniciales[71] nonce_iniciales[72] nonce_iniciales[73] nonce_iniciales[74] nonce_iniciales[75] nonce_iniciales[76] nonce_iniciales[77] nonce_iniciales[78] nonce_iniciales[79] nonce_iniciales[80] nonce_iniciales[81] nonce_iniciales[82] nonce_iniciales[83] nonce_iniciales[84] nonce_iniciales[85] nonce_iniciales[86] nonce_iniciales[87] nonce_iniciales[88] nonce_iniciales[89] nonce_iniciales[90] nonce_iniciales[91] nonce_iniciales[92] nonce_iniciales[93] nonce_iniciales[94] nonce_iniciales[95] nonce_iniciales[96] nonce_iniciales[97] nonce_iniciales[98] nonce_iniciales[99] nonce_iniciales[100] nonce_iniciales[101] nonce_iniciales[102] nonce_iniciales[103] nonce_iniciales[104] nonce_iniciales[105] nonce_iniciales[106] nonce_iniciales[107] nonce_iniciales[108] nonce_iniciales[109] nonce_iniciales[110] nonce_iniciales[111] nonce_iniciales[112] nonce_iniciales[113] nonce_iniciales[114] nonce_iniciales[115] nonce_iniciales[116] nonce_iniciales[117] nonce_iniciales[118] nonce_iniciales[119] nonce_iniciales[120] nonce_iniciales[121] nonce_iniciales[122] nonce_iniciales[123] nonce_iniciales[124] nonce_iniciales[125] nonce_iniciales[126] nonce_iniciales[127] target[0] target[1] target[2] target[3] target[4] target[5] target[6] target[7] bounty_out[0] bounty_out[1] bounty_out[2] bounty_out[3] bounty_out[4] bounty_out[5] bounty_out[6] bounty_out[7] bounty_out[8] bounty_out[9] bounty_out[10] bounty_out[11] bounty_out[12] bounty_out[13] bounty_out[14] bounty_out[15] bounty_out[16] bounty_out[17] bounty_out[18] bounty_out[19] bounty_out[20] bounty_out[21] bounty_out[22] bounty_out[23] terminado_out 
XBUFX4_1 vdd gnd bloque_datos[83] bloque_datos[83_bF$buf5] BUFX4
XBUFX4_2 vdd gnd bloque_datos[83] bloque_datos[83_bF$buf4] BUFX4
XBUFX4_3 vdd gnd bloque_datos[83] bloque_datos[83_bF$buf3] BUFX4
XBUFX4_4 vdd gnd bloque_datos[83] bloque_datos[83_bF$buf2] BUFX4
XBUFX4_5 vdd gnd bloque_datos[83] bloque_datos[83_bF$buf1] BUFX4
XBUFX4_6 vdd gnd bloque_datos[83] bloque_datos[83_bF$buf0] BUFX4
XBUFX4_7 vdd gnd _12797_ _12797__bF$buf4 BUFX4
XBUFX4_8 vdd gnd _12797_ _12797__bF$buf3 BUFX4
XBUFX4_9 vdd gnd _12797_ _12797__bF$buf2 BUFX4
XBUFX4_10 vdd gnd _12797_ _12797__bF$buf1 BUFX4
XBUFX4_11 vdd gnd _12797_ _12797__bF$buf0 BUFX4
XBUFX4_12 vdd gnd bloque_datos[42] bloque_datos[42_bF$buf3] BUFX4
XBUFX4_13 vdd gnd bloque_datos[42] bloque_datos[42_bF$buf2] BUFX4
XBUFX4_14 vdd gnd bloque_datos[42] bloque_datos[42_bF$buf1] BUFX4
XBUFX4_15 vdd gnd bloque_datos[42] bloque_datos[42_bF$buf0] BUFX4
XBUFX4_16 vdd gnd bloque_datos[80] bloque_datos[80_bF$buf5] BUFX4
XBUFX4_17 vdd gnd bloque_datos[80] bloque_datos[80_bF$buf4] BUFX4
XBUFX4_18 vdd gnd bloque_datos[80] bloque_datos[80_bF$buf3] BUFX4
XBUFX4_19 vdd gnd bloque_datos[80] bloque_datos[80_bF$buf2] BUFX4
XBUFX4_20 vdd gnd bloque_datos[80] bloque_datos[80_bF$buf1] BUFX4
XBUFX4_21 vdd gnd bloque_datos[80] bloque_datos[80_bF$buf0] BUFX4
XBUFX4_22 vdd gnd bloque_datos[77] bloque_datos[77_bF$buf4] BUFX4
XBUFX4_23 vdd gnd bloque_datos[77] bloque_datos[77_bF$buf3] BUFX4
XBUFX4_24 vdd gnd bloque_datos[77] bloque_datos[77_bF$buf2] BUFX4
XBUFX4_25 vdd gnd bloque_datos[77] bloque_datos[77_bF$buf1] BUFX4
XBUFX4_26 vdd gnd bloque_datos[77] bloque_datos[77_bF$buf0] BUFX4
XBUFX4_27 vdd gnd _16933_ _16933__bF$buf3 BUFX4
XBUFX4_28 vdd gnd _16933_ _16933__bF$buf2 BUFX4
XBUFX4_29 vdd gnd _16933_ _16933__bF$buf1 BUFX4
XBUFX4_30 vdd gnd _16933_ _16933__bF$buf0 BUFX4
XBUFX4_31 vdd gnd module_1.comparador_target_hash_0.terminado module_1.comparador_target_hash_0.terminado_bF$buf6 BUFX4
XBUFX4_32 vdd gnd module_1.comparador_target_hash_0.terminado module_1.comparador_target_hash_0.terminado_bF$buf5 BUFX4
XBUFX4_33 vdd gnd module_1.comparador_target_hash_0.terminado module_1.comparador_target_hash_0.terminado_bF$buf4 BUFX4
XBUFX4_34 vdd gnd module_1.comparador_target_hash_0.terminado module_1.comparador_target_hash_0.terminado_bF$buf3 BUFX4
XBUFX4_35 vdd gnd module_1.comparador_target_hash_0.terminado module_1.comparador_target_hash_0.terminado_bF$buf2 BUFX4
XBUFX4_36 vdd gnd module_1.comparador_target_hash_0.terminado module_1.comparador_target_hash_0.terminado_bF$buf1 BUFX4
XBUFX4_37 vdd gnd module_1.comparador_target_hash_0.terminado module_1.comparador_target_hash_0.terminado_bF$buf0 BUFX4
XBUFX4_38 vdd gnd bloque_datos[36] bloque_datos[36_bF$buf3] BUFX4
XBUFX4_39 vdd gnd bloque_datos[36] bloque_datos[36_bF$buf2] BUFX4
XBUFX4_40 vdd gnd bloque_datos[36] bloque_datos[36_bF$buf1] BUFX4
XBUFX4_41 vdd gnd bloque_datos[36] bloque_datos[36_bF$buf0] BUFX4
XBUFX4_42 vdd gnd module_3.comparador_target_hash_0.terminado module_3.comparador_target_hash_0.terminado_bF$buf6 BUFX4
XBUFX4_43 vdd gnd module_3.comparador_target_hash_0.terminado module_3.comparador_target_hash_0.terminado_bF$buf5 BUFX4
XBUFX4_44 vdd gnd module_3.comparador_target_hash_0.terminado module_3.comparador_target_hash_0.terminado_bF$buf4 BUFX4
XBUFX4_45 vdd gnd module_3.comparador_target_hash_0.terminado module_3.comparador_target_hash_0.terminado_bF$buf3 BUFX4
XBUFX4_46 vdd gnd module_3.comparador_target_hash_0.terminado module_3.comparador_target_hash_0.terminado_bF$buf2 BUFX4
XBUFX4_47 vdd gnd module_3.comparador_target_hash_0.terminado module_3.comparador_target_hash_0.terminado_bF$buf1 BUFX4
XBUFX4_48 vdd gnd module_3.comparador_target_hash_0.terminado module_3.comparador_target_hash_0.terminado_bF$buf0 BUFX4
XBUFX4_49 vdd gnd bloque_datos[74] bloque_datos[74_bF$buf4] BUFX4
XBUFX4_50 vdd gnd bloque_datos[74] bloque_datos[74_bF$buf3] BUFX4
XBUFX4_51 vdd gnd bloque_datos[74] bloque_datos[74_bF$buf2] BUFX4
XBUFX4_52 vdd gnd bloque_datos[74] bloque_datos[74_bF$buf1] BUFX4
XBUFX4_53 vdd gnd bloque_datos[74] bloque_datos[74_bF$buf0] BUFX4
XBUFX4_54 vdd gnd bloque_datos[33] bloque_datos[33_bF$buf3] BUFX4
XBUFX4_55 vdd gnd bloque_datos[33] bloque_datos[33_bF$buf2] BUFX4
XBUFX4_56 vdd gnd bloque_datos[33] bloque_datos[33_bF$buf1] BUFX4
XBUFX4_57 vdd gnd bloque_datos[33] bloque_datos[33_bF$buf0] BUFX4
XBUFX4_58 vdd gnd bloque_datos[71] bloque_datos[71_bF$buf3] BUFX4
XBUFX4_59 vdd gnd bloque_datos[71] bloque_datos[71_bF$buf2] BUFX4
XBUFX4_60 vdd gnd bloque_datos[71] bloque_datos[71_bF$buf1] BUFX4
XBUFX4_61 vdd gnd bloque_datos[71] bloque_datos[71_bF$buf0] BUFX4
XBUFX4_62 vdd gnd bloque_datos[6] bloque_datos[6_bF$buf3] BUFX4
XBUFX4_63 vdd gnd bloque_datos[6] bloque_datos[6_bF$buf2] BUFX4
XBUFX4_64 vdd gnd bloque_datos[6] bloque_datos[6_bF$buf1] BUFX4
XBUFX4_65 vdd gnd bloque_datos[6] bloque_datos[6_bF$buf0] BUFX4
XBUFX4_66 vdd gnd bloque_datos[68] bloque_datos[68_bF$buf3] BUFX4
XBUFX4_67 vdd gnd bloque_datos[68] bloque_datos[68_bF$buf2] BUFX4
XBUFX4_68 vdd gnd bloque_datos[68] bloque_datos[68_bF$buf1] BUFX4
XBUFX4_69 vdd gnd bloque_datos[68] bloque_datos[68_bF$buf0] BUFX4
XBUFX4_70 vdd gnd _12844_ _12844__bF$buf4 BUFX4
XBUFX4_71 vdd gnd _12844_ _12844__bF$buf3 BUFX4
XBUFX4_72 vdd gnd _12844_ _12844__bF$buf2 BUFX4
XBUFX4_73 vdd gnd _12844_ _12844__bF$buf1 BUFX4
XBUFX4_74 vdd gnd _12844_ _12844__bF$buf0 BUFX4
XBUFX4_75 vdd gnd bloque_datos[30] bloque_datos[30_bF$buf3] BUFX4
XBUFX4_76 vdd gnd bloque_datos[30] bloque_datos[30_bF$buf2] BUFX4
XBUFX4_77 vdd gnd bloque_datos[30] bloque_datos[30_bF$buf1] BUFX4
XBUFX4_78 vdd gnd bloque_datos[30] bloque_datos[30_bF$buf0] BUFX4
XBUFX4_79 vdd gnd bloque_datos[3] bloque_datos[3_bF$buf3] BUFX4
XBUFX4_80 vdd gnd bloque_datos[3] bloque_datos[3_bF$buf2] BUFX4
XBUFX4_81 vdd gnd bloque_datos[3] bloque_datos[3_bF$buf1] BUFX4
XBUFX4_82 vdd gnd bloque_datos[3] bloque_datos[3_bF$buf0] BUFX4
XBUFX4_83 vdd gnd bloque_datos[27] bloque_datos[27_bF$buf4] BUFX4
XBUFX4_84 vdd gnd bloque_datos[27] bloque_datos[27_bF$buf3] BUFX4
XBUFX4_85 vdd gnd bloque_datos[27] bloque_datos[27_bF$buf2] BUFX4
XBUFX4_86 vdd gnd bloque_datos[27] bloque_datos[27_bF$buf1] BUFX4
XBUFX4_87 vdd gnd bloque_datos[27] bloque_datos[27_bF$buf0] BUFX4
XBUFX4_88 vdd gnd bloque_datos[65] bloque_datos[65_bF$buf3] BUFX4
XBUFX4_89 vdd gnd bloque_datos[65] bloque_datos[65_bF$buf2] BUFX4
XBUFX4_90 vdd gnd bloque_datos[65] bloque_datos[65_bF$buf1] BUFX4
XBUFX4_91 vdd gnd bloque_datos[65] bloque_datos[65_bF$buf0] BUFX4
XCLKBUF1_1 clk vdd gnd clk_bF$buf10 CLKBUF1
XCLKBUF1_2 clk vdd gnd clk_bF$buf9 CLKBUF1
XCLKBUF1_3 clk vdd gnd clk_bF$buf8 CLKBUF1
XCLKBUF1_4 clk vdd gnd clk_bF$buf7 CLKBUF1
XCLKBUF1_5 clk vdd gnd clk_bF$buf6 CLKBUF1
XCLKBUF1_6 clk vdd gnd clk_bF$buf5 CLKBUF1
XCLKBUF1_7 clk vdd gnd clk_bF$buf4 CLKBUF1
XCLKBUF1_8 clk vdd gnd clk_bF$buf3 CLKBUF1
XCLKBUF1_9 clk vdd gnd clk_bF$buf2 CLKBUF1
XCLKBUF1_10 clk vdd gnd clk_bF$buf1 CLKBUF1
XCLKBUF1_11 clk vdd gnd clk_bF$buf0 CLKBUF1
XBUFX4_92 vdd gnd _4187_ _4187__bF$buf4 BUFX4
XBUFX4_93 vdd gnd _4187_ _4187__bF$buf3 BUFX4
XBUFX4_94 vdd gnd _4187_ _4187__bF$buf2 BUFX4
XBUFX4_95 vdd gnd _4187_ _4187__bF$buf1 BUFX4
XBUFX4_96 vdd gnd _4187_ _4187__bF$buf0 BUFX4
XBUFX4_97 vdd gnd bloque_datos[24] bloque_datos[24_bF$buf4] BUFX4
XBUFX4_98 vdd gnd bloque_datos[24] bloque_datos[24_bF$buf3] BUFX4
XBUFX4_99 vdd gnd bloque_datos[24] bloque_datos[24_bF$buf2] BUFX4
XBUFX4_100 vdd gnd bloque_datos[24] bloque_datos[24_bF$buf1] BUFX4
XBUFX4_101 vdd gnd bloque_datos[24] bloque_datos[24_bF$buf0] BUFX4
XBUFX4_102 vdd gnd bloque_datos[62] bloque_datos[62_bF$buf3] BUFX4
XBUFX4_103 vdd gnd bloque_datos[62] bloque_datos[62_bF$buf2] BUFX4
XBUFX4_104 vdd gnd bloque_datos[62] bloque_datos[62_bF$buf1] BUFX4
XBUFX4_105 vdd gnd bloque_datos[62] bloque_datos[62_bF$buf0] BUFX4
XBUFX4_106 vdd gnd _8323_ _8323__bF$buf3 BUFX4
XBUFX4_107 vdd gnd _8323_ _8323__bF$buf2 BUFX4
XBUFX4_108 vdd gnd _8323_ _8323__bF$buf1 BUFX4
XBUFX4_109 vdd gnd _8323_ _8323__bF$buf0 BUFX4
XBUFX4_110 vdd gnd bloque_datos[59] bloque_datos[59_bF$buf4] BUFX4
XBUFX4_111 vdd gnd bloque_datos[59] bloque_datos[59_bF$buf3] BUFX4
XBUFX4_112 vdd gnd bloque_datos[59] bloque_datos[59_bF$buf2] BUFX4
XBUFX4_113 vdd gnd bloque_datos[59] bloque_datos[59_bF$buf1] BUFX4
XBUFX4_114 vdd gnd bloque_datos[59] bloque_datos[59_bF$buf0] BUFX4
XBUFX4_115 vdd gnd bloque_datos[21] bloque_datos[21_bF$buf3] BUFX4
XBUFX4_116 vdd gnd bloque_datos[21] bloque_datos[21_bF$buf2] BUFX4
XBUFX4_117 vdd gnd bloque_datos[21] bloque_datos[21_bF$buf1] BUFX4
XBUFX4_118 vdd gnd bloque_datos[21] bloque_datos[21_bF$buf0] BUFX4
XBUFX4_119 vdd gnd bloque_datos[56] bloque_datos[56_bF$buf4] BUFX4
XBUFX4_120 vdd gnd bloque_datos[56] bloque_datos[56_bF$buf3] BUFX4
XBUFX4_121 vdd gnd bloque_datos[56] bloque_datos[56_bF$buf2] BUFX4
XBUFX4_122 vdd gnd bloque_datos[56] bloque_datos[56_bF$buf1] BUFX4
XBUFX4_123 vdd gnd bloque_datos[56] bloque_datos[56_bF$buf0] BUFX4
XBUFX4_124 vdd gnd bloque_datos[94] bloque_datos[94_bF$buf3] BUFX4
XBUFX4_125 vdd gnd bloque_datos[94] bloque_datos[94_bF$buf2] BUFX4
XBUFX4_126 vdd gnd bloque_datos[94] bloque_datos[94_bF$buf1] BUFX4
XBUFX4_127 vdd gnd bloque_datos[94] bloque_datos[94_bF$buf0] BUFX4
XBUFX4_128 vdd gnd bloque_datos[53] bloque_datos[53_bF$buf3] BUFX4
XBUFX4_129 vdd gnd bloque_datos[53] bloque_datos[53_bF$buf2] BUFX4
XBUFX4_130 vdd gnd bloque_datos[53] bloque_datos[53_bF$buf1] BUFX4
XBUFX4_131 vdd gnd bloque_datos[53] bloque_datos[53_bF$buf0] BUFX4
XBUFX4_132 vdd gnd bloque_datos[91] bloque_datos[91_bF$buf3] BUFX4
XBUFX4_133 vdd gnd bloque_datos[91] bloque_datos[91_bF$buf2] BUFX4
XBUFX4_134 vdd gnd bloque_datos[91] bloque_datos[91_bF$buf1] BUFX4
XBUFX4_135 vdd gnd bloque_datos[91] bloque_datos[91_bF$buf0] BUFX4
XBUFX4_136 vdd gnd _4234_ _4234__bF$buf4 BUFX4
XBUFX4_137 vdd gnd _4234_ _4234__bF$buf3 BUFX4
XBUFX4_138 vdd gnd _4234_ _4234__bF$buf2 BUFX4
XBUFX4_139 vdd gnd _4234_ _4234__bF$buf1 BUFX4
XBUFX4_140 vdd gnd _4234_ _4234__bF$buf0 BUFX4
XBUFX4_141 vdd gnd bloque_datos[88] bloque_datos[88_bF$buf4] BUFX4
XBUFX4_142 vdd gnd bloque_datos[88] bloque_datos[88_bF$buf3] BUFX4
XBUFX4_143 vdd gnd bloque_datos[88] bloque_datos[88_bF$buf2] BUFX4
XBUFX4_144 vdd gnd bloque_datos[88] bloque_datos[88_bF$buf1] BUFX4
XBUFX4_145 vdd gnd bloque_datos[88] bloque_datos[88_bF$buf0] BUFX4
XBUFX4_146 vdd gnd bloque_datos[12] bloque_datos[12_bF$buf3] BUFX4
XBUFX4_147 vdd gnd bloque_datos[12] bloque_datos[12_bF$buf2] BUFX4
XBUFX4_148 vdd gnd bloque_datos[12] bloque_datos[12_bF$buf1] BUFX4
XBUFX4_149 vdd gnd bloque_datos[12] bloque_datos[12_bF$buf0] BUFX4
XBUFX4_150 vdd gnd bloque_datos[50] bloque_datos[50_bF$buf3] BUFX4
XBUFX4_151 vdd gnd bloque_datos[50] bloque_datos[50_bF$buf2] BUFX4
XBUFX4_152 vdd gnd bloque_datos[50] bloque_datos[50_bF$buf1] BUFX4
XBUFX4_153 vdd gnd bloque_datos[50] bloque_datos[50_bF$buf0] BUFX4
XBUFX4_154 vdd gnd bloque_datos[47] bloque_datos[47_bF$buf3] BUFX4
XBUFX4_155 vdd gnd bloque_datos[47] bloque_datos[47_bF$buf2] BUFX4
XBUFX4_156 vdd gnd bloque_datos[47] bloque_datos[47_bF$buf1] BUFX4
XBUFX4_157 vdd gnd bloque_datos[47] bloque_datos[47_bF$buf0] BUFX4
XBUFX4_158 vdd gnd bloque_datos[85] bloque_datos[85_bF$buf4] BUFX4
XBUFX4_159 vdd gnd bloque_datos[85] bloque_datos[85_bF$buf3] BUFX4
XBUFX4_160 vdd gnd bloque_datos[85] bloque_datos[85_bF$buf2] BUFX4
XBUFX4_161 vdd gnd bloque_datos[85] bloque_datos[85_bF$buf1] BUFX4
XBUFX4_162 vdd gnd bloque_datos[85] bloque_datos[85_bF$buf0] BUFX4
XBUFX4_163 vdd gnd bloque_datos[44] bloque_datos[44_bF$buf4] BUFX4
XBUFX4_164 vdd gnd bloque_datos[44] bloque_datos[44_bF$buf3] BUFX4
XBUFX4_165 vdd gnd bloque_datos[44] bloque_datos[44_bF$buf2] BUFX4
XBUFX4_166 vdd gnd bloque_datos[44] bloque_datos[44_bF$buf1] BUFX4
XBUFX4_167 vdd gnd bloque_datos[44] bloque_datos[44_bF$buf0] BUFX4
XBUFX4_168 vdd gnd bloque_datos[82] bloque_datos[82_bF$buf4] BUFX4
XBUFX4_169 vdd gnd bloque_datos[82] bloque_datos[82_bF$buf3] BUFX4
XBUFX4_170 vdd gnd bloque_datos[82] bloque_datos[82_bF$buf2] BUFX4
XBUFX4_171 vdd gnd bloque_datos[82] bloque_datos[82_bF$buf1] BUFX4
XBUFX4_172 vdd gnd bloque_datos[82] bloque_datos[82_bF$buf0] BUFX4
XBUFX4_173 vdd gnd bloque_datos[79] bloque_datos[79_bF$buf3] BUFX4
XBUFX4_174 vdd gnd bloque_datos[79] bloque_datos[79_bF$buf2] BUFX4
XBUFX4_175 vdd gnd bloque_datos[79] bloque_datos[79_bF$buf1] BUFX4
XBUFX4_176 vdd gnd bloque_datos[79] bloque_datos[79_bF$buf0] BUFX4
XBUFX4_177 vdd gnd bloque_datos[41] bloque_datos[41_bF$buf3] BUFX4
XBUFX4_178 vdd gnd bloque_datos[41] bloque_datos[41_bF$buf2] BUFX4
XBUFX4_179 vdd gnd bloque_datos[41] bloque_datos[41_bF$buf1] BUFX4
XBUFX4_180 vdd gnd bloque_datos[41] bloque_datos[41_bF$buf0] BUFX4
XBUFX4_181 vdd gnd bloque_datos[38] bloque_datos[38_bF$buf3] BUFX4
XBUFX4_182 vdd gnd bloque_datos[38] bloque_datos[38_bF$buf2] BUFX4
XBUFX4_183 vdd gnd bloque_datos[38] bloque_datos[38_bF$buf1] BUFX4
XBUFX4_184 vdd gnd bloque_datos[38] bloque_datos[38_bF$buf0] BUFX4
XBUFX4_185 vdd gnd bloque_datos[76] bloque_datos[76_bF$buf4] BUFX4
XBUFX4_186 vdd gnd bloque_datos[76] bloque_datos[76_bF$buf3] BUFX4
XBUFX4_187 vdd gnd bloque_datos[76] bloque_datos[76_bF$buf2] BUFX4
XBUFX4_188 vdd gnd bloque_datos[76] bloque_datos[76_bF$buf1] BUFX4
XBUFX4_189 vdd gnd bloque_datos[76] bloque_datos[76_bF$buf0] BUFX4
XBUFX4_190 vdd gnd bloque_datos[35] bloque_datos[35_bF$buf4] BUFX4
XBUFX4_191 vdd gnd bloque_datos[35] bloque_datos[35_bF$buf3] BUFX4
XBUFX4_192 vdd gnd bloque_datos[35] bloque_datos[35_bF$buf2] BUFX4
XBUFX4_193 vdd gnd bloque_datos[35] bloque_datos[35_bF$buf1] BUFX4
XBUFX4_194 vdd gnd bloque_datos[35] bloque_datos[35_bF$buf0] BUFX4
XBUFX4_195 vdd gnd bloque_datos[73] bloque_datos[73_bF$buf3] BUFX4
XBUFX4_196 vdd gnd bloque_datos[73] bloque_datos[73_bF$buf2] BUFX4
XBUFX4_197 vdd gnd bloque_datos[73] bloque_datos[73_bF$buf1] BUFX4
XBUFX4_198 vdd gnd bloque_datos[73] bloque_datos[73_bF$buf0] BUFX4
XBUFX4_199 vdd gnd bloque_datos[32] bloque_datos[32_bF$buf4] BUFX4
XBUFX4_200 vdd gnd bloque_datos[32] bloque_datos[32_bF$buf3] BUFX4
XBUFX4_201 vdd gnd bloque_datos[32] bloque_datos[32_bF$buf2] BUFX4
XBUFX4_202 vdd gnd bloque_datos[32] bloque_datos[32_bF$buf1] BUFX4
XBUFX4_203 vdd gnd bloque_datos[32] bloque_datos[32_bF$buf0] BUFX4
XBUFX4_204 vdd gnd bloque_datos[70] bloque_datos[70_bF$buf3] BUFX4
XBUFX4_205 vdd gnd bloque_datos[70] bloque_datos[70_bF$buf2] BUFX4
XBUFX4_206 vdd gnd bloque_datos[70] bloque_datos[70_bF$buf1] BUFX4
XBUFX4_207 vdd gnd bloque_datos[70] bloque_datos[70_bF$buf0] BUFX4
XBUFX4_208 vdd gnd inicio inicio_bF$buf10 BUFX4
XBUFX4_209 vdd gnd inicio inicio_bF$buf9 BUFX4
XBUFX4_210 vdd gnd inicio inicio_bF$buf8 BUFX4
XBUFX4_211 vdd gnd inicio inicio_bF$buf7 BUFX4
XBUFX4_212 vdd gnd inicio inicio_bF$buf6 BUFX4
XBUFX4_213 vdd gnd inicio inicio_bF$buf5 BUFX4
XBUFX4_214 vdd gnd inicio inicio_bF$buf4 BUFX4
XBUFX4_215 vdd gnd inicio inicio_bF$buf3 BUFX4
XBUFX4_216 vdd gnd inicio inicio_bF$buf2 BUFX4
XBUFX4_217 vdd gnd inicio inicio_bF$buf1 BUFX4
XBUFX4_218 vdd gnd inicio inicio_bF$buf0 BUFX4
XBUFX4_219 vdd gnd bloque_datos[5] bloque_datos[5_bF$buf3] BUFX4
XBUFX4_220 vdd gnd bloque_datos[5] bloque_datos[5_bF$buf2] BUFX4
XBUFX4_221 vdd gnd bloque_datos[5] bloque_datos[5_bF$buf1] BUFX4
XBUFX4_222 vdd gnd bloque_datos[5] bloque_datos[5_bF$buf0] BUFX4
XBUFX4_223 vdd gnd bloque_datos[29] bloque_datos[29_bF$buf4] BUFX4
XBUFX4_224 vdd gnd bloque_datos[29] bloque_datos[29_bF$buf3] BUFX4
XBUFX4_225 vdd gnd bloque_datos[29] bloque_datos[29_bF$buf2] BUFX4
XBUFX4_226 vdd gnd bloque_datos[29] bloque_datos[29_bF$buf1] BUFX4
XBUFX4_227 vdd gnd bloque_datos[29] bloque_datos[29_bF$buf0] BUFX4
XBUFX4_228 vdd gnd bloque_datos[67] bloque_datos[67_bF$buf4] BUFX4
XBUFX4_229 vdd gnd bloque_datos[67] bloque_datos[67_bF$buf3] BUFX4
XBUFX4_230 vdd gnd bloque_datos[67] bloque_datos[67_bF$buf2] BUFX4
XBUFX4_231 vdd gnd bloque_datos[67] bloque_datos[67_bF$buf1] BUFX4
XBUFX4_232 vdd gnd bloque_datos[67] bloque_datos[67_bF$buf0] BUFX4
XBUFX4_233 vdd gnd bloque_datos[2] bloque_datos[2_bF$buf3] BUFX4
XBUFX4_234 vdd gnd bloque_datos[2] bloque_datos[2_bF$buf2] BUFX4
XBUFX4_235 vdd gnd bloque_datos[2] bloque_datos[2_bF$buf1] BUFX4
XBUFX4_236 vdd gnd bloque_datos[2] bloque_datos[2_bF$buf0] BUFX4
XBUFX4_237 vdd gnd bloque_datos[26] bloque_datos[26_bF$buf3] BUFX4
XBUFX4_238 vdd gnd bloque_datos[26] bloque_datos[26_bF$buf2] BUFX4
XBUFX4_239 vdd gnd bloque_datos[26] bloque_datos[26_bF$buf1] BUFX4
XBUFX4_240 vdd gnd bloque_datos[26] bloque_datos[26_bF$buf0] BUFX4
XBUFX4_241 vdd gnd bloque_datos[64] bloque_datos[64_bF$buf4] BUFX4
XBUFX4_242 vdd gnd bloque_datos[64] bloque_datos[64_bF$buf3] BUFX4
XBUFX4_243 vdd gnd bloque_datos[64] bloque_datos[64_bF$buf2] BUFX4
XBUFX4_244 vdd gnd bloque_datos[64] bloque_datos[64_bF$buf1] BUFX4
XBUFX4_245 vdd gnd bloque_datos[64] bloque_datos[64_bF$buf0] BUFX4
XBUFX4_246 vdd gnd bloque_datos[23] bloque_datos[23_bF$buf3] BUFX4
XBUFX4_247 vdd gnd bloque_datos[23] bloque_datos[23_bF$buf2] BUFX4
XBUFX4_248 vdd gnd bloque_datos[23] bloque_datos[23_bF$buf1] BUFX4
XBUFX4_249 vdd gnd bloque_datos[23] bloque_datos[23_bF$buf0] BUFX4
XBUFX4_250 vdd gnd bloque_datos[61] bloque_datos[61_bF$buf4] BUFX4
XBUFX4_251 vdd gnd bloque_datos[61] bloque_datos[61_bF$buf3] BUFX4
XBUFX4_252 vdd gnd bloque_datos[61] bloque_datos[61_bF$buf2] BUFX4
XBUFX4_253 vdd gnd bloque_datos[61] bloque_datos[61_bF$buf1] BUFX4
XBUFX4_254 vdd gnd bloque_datos[61] bloque_datos[61_bF$buf0] BUFX4
XBUFX4_255 vdd gnd bloque_datos[58] bloque_datos[58_bF$buf4] BUFX4
XBUFX4_256 vdd gnd bloque_datos[58] bloque_datos[58_bF$buf3] BUFX4
XBUFX4_257 vdd gnd bloque_datos[58] bloque_datos[58_bF$buf2] BUFX4
XBUFX4_258 vdd gnd bloque_datos[58] bloque_datos[58_bF$buf1] BUFX4
XBUFX4_259 vdd gnd bloque_datos[58] bloque_datos[58_bF$buf0] BUFX4
XBUFX4_260 vdd gnd _8492_ _8492__bF$buf4 BUFX4
XBUFX4_261 vdd gnd _8492_ _8492__bF$buf3 BUFX4
XBUFX4_262 vdd gnd _8492_ _8492__bF$buf2 BUFX4
XBUFX4_263 vdd gnd _8492_ _8492__bF$buf1 BUFX4
XBUFX4_264 vdd gnd _8492_ _8492__bF$buf0 BUFX4
XBUFX4_265 vdd gnd bloque_datos[20] bloque_datos[20_bF$buf3] BUFX4
XBUFX4_266 vdd gnd bloque_datos[20] bloque_datos[20_bF$buf2] BUFX4
XBUFX4_267 vdd gnd bloque_datos[20] bloque_datos[20_bF$buf1] BUFX4
XBUFX4_268 vdd gnd bloque_datos[20] bloque_datos[20_bF$buf0] BUFX4
XBUFX4_269 vdd gnd bloque_datos[93] bloque_datos[93_bF$buf3] BUFX4
XBUFX4_270 vdd gnd bloque_datos[93] bloque_datos[93_bF$buf2] BUFX4
XBUFX4_271 vdd gnd bloque_datos[93] bloque_datos[93_bF$buf1] BUFX4
XBUFX4_272 vdd gnd bloque_datos[93] bloque_datos[93_bF$buf0] BUFX4
XBUFX4_273 vdd gnd bloque_datos[14] bloque_datos[14_bF$buf3] BUFX4
XBUFX4_274 vdd gnd bloque_datos[14] bloque_datos[14_bF$buf2] BUFX4
XBUFX4_275 vdd gnd bloque_datos[14] bloque_datos[14_bF$buf1] BUFX4
XBUFX4_276 vdd gnd bloque_datos[14] bloque_datos[14_bF$buf0] BUFX4
XBUFX4_277 vdd gnd bloque_datos[52] bloque_datos[52_bF$buf4] BUFX4
XBUFX4_278 vdd gnd bloque_datos[52] bloque_datos[52_bF$buf3] BUFX4
XBUFX4_279 vdd gnd bloque_datos[52] bloque_datos[52_bF$buf2] BUFX4
XBUFX4_280 vdd gnd bloque_datos[52] bloque_datos[52_bF$buf1] BUFX4
XBUFX4_281 vdd gnd bloque_datos[52] bloque_datos[52_bF$buf0] BUFX4
XBUFX4_282 vdd gnd bloque_datos[90] bloque_datos[90_bF$buf4] BUFX4
XBUFX4_283 vdd gnd bloque_datos[90] bloque_datos[90_bF$buf3] BUFX4
XBUFX4_284 vdd gnd bloque_datos[90] bloque_datos[90_bF$buf2] BUFX4
XBUFX4_285 vdd gnd bloque_datos[90] bloque_datos[90_bF$buf1] BUFX4
XBUFX4_286 vdd gnd bloque_datos[90] bloque_datos[90_bF$buf0] BUFX4
XBUFX4_287 vdd gnd bloque_datos[49] bloque_datos[49_bF$buf3] BUFX4
XBUFX4_288 vdd gnd bloque_datos[49] bloque_datos[49_bF$buf2] BUFX4
XBUFX4_289 vdd gnd bloque_datos[49] bloque_datos[49_bF$buf1] BUFX4
XBUFX4_290 vdd gnd bloque_datos[49] bloque_datos[49_bF$buf0] BUFX4
XBUFX4_291 vdd gnd bloque_datos[87] bloque_datos[87_bF$buf3] BUFX4
XBUFX4_292 vdd gnd bloque_datos[87] bloque_datos[87_bF$buf2] BUFX4
XBUFX4_293 vdd gnd bloque_datos[87] bloque_datos[87_bF$buf1] BUFX4
XBUFX4_294 vdd gnd bloque_datos[87] bloque_datos[87_bF$buf0] BUFX4
XBUFX4_295 vdd gnd _8539_ _8539__bF$buf4 BUFX4
XBUFX4_296 vdd gnd _8539_ _8539__bF$buf3 BUFX4
XBUFX4_297 vdd gnd _8539_ _8539__bF$buf2 BUFX4
XBUFX4_298 vdd gnd _8539_ _8539__bF$buf1 BUFX4
XBUFX4_299 vdd gnd _8539_ _8539__bF$buf0 BUFX4
XBUFX4_300 vdd gnd bloque_datos[46] bloque_datos[46_bF$buf4] BUFX4
XBUFX4_301 vdd gnd bloque_datos[46] bloque_datos[46_bF$buf3] BUFX4
XBUFX4_302 vdd gnd bloque_datos[46] bloque_datos[46_bF$buf2] BUFX4
XBUFX4_303 vdd gnd bloque_datos[46] bloque_datos[46_bF$buf1] BUFX4
XBUFX4_304 vdd gnd bloque_datos[46] bloque_datos[46_bF$buf0] BUFX4
XBUFX4_305 vdd gnd bloque_datos[84] bloque_datos[84_bF$buf4] BUFX4
XBUFX4_306 vdd gnd bloque_datos[84] bloque_datos[84_bF$buf3] BUFX4
XBUFX4_307 vdd gnd bloque_datos[84] bloque_datos[84_bF$buf2] BUFX4
XBUFX4_308 vdd gnd bloque_datos[84] bloque_datos[84_bF$buf1] BUFX4
XBUFX4_309 vdd gnd bloque_datos[84] bloque_datos[84_bF$buf0] BUFX4
XBUFX4_310 vdd gnd _12628_ _12628__bF$buf3 BUFX4
XBUFX4_311 vdd gnd _12628_ _12628__bF$buf2 BUFX4
XBUFX4_312 vdd gnd _12628_ _12628__bF$buf1 BUFX4
XBUFX4_313 vdd gnd _12628_ _12628__bF$buf0 BUFX4
XBUFX4_314 vdd gnd _17149_ _17149__bF$buf4 BUFX4
XBUFX4_315 vdd gnd _17149_ _17149__bF$buf3 BUFX4
XBUFX4_316 vdd gnd _17149_ _17149__bF$buf2 BUFX4
XBUFX4_317 vdd gnd _17149_ _17149__bF$buf1 BUFX4
XBUFX4_318 vdd gnd _17149_ _17149__bF$buf0 BUFX4
XBUFX4_319 vdd gnd bloque_datos[43] bloque_datos[43_bF$buf3] BUFX4
XBUFX4_320 vdd gnd bloque_datos[43] bloque_datos[43_bF$buf2] BUFX4
XBUFX4_321 vdd gnd bloque_datos[43] bloque_datos[43_bF$buf1] BUFX4
XBUFX4_322 vdd gnd bloque_datos[43] bloque_datos[43_bF$buf0] BUFX4
XBUFX4_323 vdd gnd bloque_datos[81] bloque_datos[81_bF$buf4] BUFX4
XBUFX4_324 vdd gnd bloque_datos[81] bloque_datos[81_bF$buf3] BUFX4
XBUFX4_325 vdd gnd bloque_datos[81] bloque_datos[81_bF$buf2] BUFX4
XBUFX4_326 vdd gnd bloque_datos[81] bloque_datos[81_bF$buf1] BUFX4
XBUFX4_327 vdd gnd bloque_datos[81] bloque_datos[81_bF$buf0] BUFX4
XBUFX4_328 vdd gnd bloque_datos[78] bloque_datos[78_bF$buf4] BUFX4
XBUFX4_329 vdd gnd bloque_datos[78] bloque_datos[78_bF$buf3] BUFX4
XBUFX4_330 vdd gnd bloque_datos[78] bloque_datos[78_bF$buf2] BUFX4
XBUFX4_331 vdd gnd bloque_datos[78] bloque_datos[78_bF$buf1] BUFX4
XBUFX4_332 vdd gnd bloque_datos[78] bloque_datos[78_bF$buf0] BUFX4
XBUFX4_333 vdd gnd module_0.comparador_target_hash_0.terminado module_0.comparador_target_hash_0.terminado_bF$buf4 BUFX4
XBUFX4_334 vdd gnd module_0.comparador_target_hash_0.terminado module_0.comparador_target_hash_0.terminado_bF$buf3 BUFX4
XBUFX4_335 vdd gnd module_0.comparador_target_hash_0.terminado module_0.comparador_target_hash_0.terminado_bF$buf2 BUFX4
XBUFX4_336 vdd gnd module_0.comparador_target_hash_0.terminado module_0.comparador_target_hash_0.terminado_bF$buf1 BUFX4
XBUFX4_337 vdd gnd module_0.comparador_target_hash_0.terminado module_0.comparador_target_hash_0.terminado_bF$buf0 BUFX4
XBUFX4_338 vdd gnd bloque_datos[40] bloque_datos[40_bF$buf4] BUFX4
XBUFX4_339 vdd gnd bloque_datos[40] bloque_datos[40_bF$buf3] BUFX4
XBUFX4_340 vdd gnd bloque_datos[40] bloque_datos[40_bF$buf2] BUFX4
XBUFX4_341 vdd gnd bloque_datos[40] bloque_datos[40_bF$buf1] BUFX4
XBUFX4_342 vdd gnd bloque_datos[40] bloque_datos[40_bF$buf0] BUFX4
XBUFX4_343 vdd gnd module_2.comparador_target_hash_0.terminado module_2.comparador_target_hash_0.terminado_bF$buf6 BUFX4
XBUFX4_344 vdd gnd module_2.comparador_target_hash_0.terminado module_2.comparador_target_hash_0.terminado_bF$buf5 BUFX4
XBUFX4_345 vdd gnd module_2.comparador_target_hash_0.terminado module_2.comparador_target_hash_0.terminado_bF$buf4 BUFX4
XBUFX4_346 vdd gnd module_2.comparador_target_hash_0.terminado module_2.comparador_target_hash_0.terminado_bF$buf3 BUFX4
XBUFX4_347 vdd gnd module_2.comparador_target_hash_0.terminado module_2.comparador_target_hash_0.terminado_bF$buf2 BUFX4
XBUFX4_348 vdd gnd module_2.comparador_target_hash_0.terminado module_2.comparador_target_hash_0.terminado_bF$buf1 BUFX4
XBUFX4_349 vdd gnd module_2.comparador_target_hash_0.terminado module_2.comparador_target_hash_0.terminado_bF$buf0 BUFX4
XBUFX4_350 vdd gnd bloque_datos[37] bloque_datos[37_bF$buf3] BUFX4
XBUFX4_351 vdd gnd bloque_datos[37] bloque_datos[37_bF$buf2] BUFX4
XBUFX4_352 vdd gnd bloque_datos[37] bloque_datos[37_bF$buf1] BUFX4
XBUFX4_353 vdd gnd bloque_datos[37] bloque_datos[37_bF$buf0] BUFX4
XBUFX4_354 vdd gnd bloque_datos[75] bloque_datos[75_bF$buf4] BUFX4
XBUFX4_355 vdd gnd bloque_datos[75] bloque_datos[75_bF$buf3] BUFX4
XBUFX4_356 vdd gnd bloque_datos[75] bloque_datos[75_bF$buf2] BUFX4
XBUFX4_357 vdd gnd bloque_datos[75] bloque_datos[75_bF$buf1] BUFX4
XBUFX4_358 vdd gnd bloque_datos[75] bloque_datos[75_bF$buf0] BUFX4
XBUFX4_359 vdd gnd bloque_datos[34] bloque_datos[34_bF$buf4] BUFX4
XBUFX4_360 vdd gnd bloque_datos[34] bloque_datos[34_bF$buf3] BUFX4
XBUFX4_361 vdd gnd bloque_datos[34] bloque_datos[34_bF$buf2] BUFX4
XBUFX4_362 vdd gnd bloque_datos[34] bloque_datos[34_bF$buf1] BUFX4
XBUFX4_363 vdd gnd bloque_datos[34] bloque_datos[34_bF$buf0] BUFX4
XBUFX4_364 vdd gnd bloque_datos[72] bloque_datos[72_bF$buf4] BUFX4
XBUFX4_365 vdd gnd bloque_datos[72] bloque_datos[72_bF$buf3] BUFX4
XBUFX4_366 vdd gnd bloque_datos[72] bloque_datos[72_bF$buf2] BUFX4