* XSpice netlist created from SPICE and liberty sources by spi2xspice.py
*SPICE netlist created from BLIF module micro_ucr_hash_mod by blif2BSpice
.subckt micro_ucr_hash_mod a_vdd a_gnd a_clk a_bloque_datos_0_ a_bloque_datos_1_ a_bloque_datos_2_ a_bloque_datos_3_ a_bloque_datos_4_ a_bloque_datos_5_ a_bloque_datos_6_ a_bloque_datos_7_ a_bloque_datos_8_ a_bloque_datos_9_ a_bloque_datos_10_ a_bloque_datos_11_ a_bloque_datos_12_ a_bloque_datos_13_ a_bloque_datos_14_ a_bloque_datos_15_ a_bloque_datos_16_ a_bloque_datos_17_ a_bloque_datos_18_ a_bloque_datos_19_ a_bloque_datos_20_ a_bloque_datos_21_ a_bloque_datos_22_ a_bloque_datos_23_ a_bloque_datos_24_ a_bloque_datos_25_ a_bloque_datos_26_ a_bloque_datos_27_ a_bloque_datos_28_ a_bloque_datos_29_ a_bloque_datos_30_ a_bloque_datos_31_ a_bloque_datos_32_ a_bloque_datos_33_ a_bloque_datos_34_ a_bloque_datos_35_ a_bloque_datos_36_ a_bloque_datos_37_ a_bloque_datos_38_ a_bloque_datos_39_ a_bloque_datos_40_ a_bloque_datos_41_ a_bloque_datos_42_ a_bloque_datos_43_ a_bloque_datos_44_ a_bloque_datos_45_ a_bloque_datos_46_ a_bloque_datos_47_ a_bloque_datos_48_ a_bloque_datos_49_ a_bloque_datos_50_ a_bloque_datos_51_ a_bloque_datos_52_ a_bloque_datos_53_ a_bloque_datos_54_ a_bloque_datos_55_ a_bloque_datos_56_ a_bloque_datos_57_ a_bloque_datos_58_ a_bloque_datos_59_ a_bloque_datos_60_ a_bloque_datos_61_ a_bloque_datos_62_ a_bloque_datos_63_ a_bloque_datos_64_ a_bloque_datos_65_ a_bloque_datos_66_ a_bloque_datos_67_ a_bloque_datos_68_ a_bloque_datos_69_ a_bloque_datos_70_ a_bloque_datos_71_ a_bloque_datos_72_ a_bloque_datos_73_ a_bloque_datos_74_ a_bloque_datos_75_ a_bloque_datos_76_ a_bloque_datos_77_ a_bloque_datos_78_ a_bloque_datos_79_ a_bloque_datos_80_ a_bloque_datos_81_ a_bloque_datos_82_ a_bloque_datos_83_ a_bloque_datos_84_ a_bloque_datos_85_ a_bloque_datos_86_ a_bloque_datos_87_ a_bloque_datos_88_ a_bloque_datos_89_ a_bloque_datos_90_ a_bloque_datos_91_ a_bloque_datos_92_ a_bloque_datos_93_ a_bloque_datos_94_ a_bloque_datos_95_ a_inicio a_nonce_iniciales_0_ a_nonce_iniciales_1_ a_nonce_iniciales_2_ a_nonce_iniciales_3_ a_nonce_iniciales_4_ a_nonce_iniciales_5_ a_nonce_iniciales_6_ a_nonce_iniciales_7_ a_nonce_iniciales_8_ a_nonce_iniciales_9_ a_nonce_iniciales_10_ a_nonce_iniciales_11_ a_nonce_iniciales_12_ a_nonce_iniciales_13_ a_nonce_iniciales_14_ a_nonce_iniciales_15_ a_nonce_iniciales_16_ a_nonce_iniciales_17_ a_nonce_iniciales_18_ a_nonce_iniciales_19_ a_nonce_iniciales_20_ a_nonce_iniciales_21_ a_nonce_iniciales_22_ a_nonce_iniciales_23_ a_nonce_iniciales_24_ a_nonce_iniciales_25_ a_nonce_iniciales_26_ a_nonce_iniciales_27_ a_nonce_iniciales_28_ a_nonce_iniciales_29_ a_nonce_iniciales_30_ a_nonce_iniciales_31_ a_nonce_iniciales_32_ a_nonce_iniciales_33_ a_nonce_iniciales_34_ a_nonce_iniciales_35_ a_nonce_iniciales_36_ a_nonce_iniciales_37_ a_nonce_iniciales_38_ a_nonce_iniciales_39_ a_nonce_iniciales_40_ a_nonce_iniciales_41_ a_nonce_iniciales_42_ a_nonce_iniciales_43_ a_nonce_iniciales_44_ a_nonce_iniciales_45_ a_nonce_iniciales_46_ a_nonce_iniciales_47_ a_nonce_iniciales_48_ a_nonce_iniciales_49_ a_nonce_iniciales_50_ a_nonce_iniciales_51_ a_nonce_iniciales_52_ a_nonce_iniciales_53_ a_nonce_iniciales_54_ a_nonce_iniciales_55_ a_nonce_iniciales_56_ a_nonce_iniciales_57_ a_nonce_iniciales_58_ a_nonce_iniciales_59_ a_nonce_iniciales_60_ a_nonce_iniciales_61_ a_nonce_iniciales_62_ a_nonce_iniciales_63_ a_nonce_iniciales_64_ a_nonce_iniciales_65_ a_nonce_iniciales_66_ a_nonce_iniciales_67_ a_nonce_iniciales_68_ a_nonce_iniciales_69_ a_nonce_iniciales_70_ a_nonce_iniciales_71_ a_nonce_iniciales_72_ a_nonce_iniciales_73_ a_nonce_iniciales_74_ a_nonce_iniciales_75_ a_nonce_iniciales_76_ a_nonce_iniciales_77_ a_nonce_iniciales_78_ a_nonce_iniciales_79_ a_nonce_iniciales_80_ a_nonce_iniciales_81_ a_nonce_iniciales_82_ a_nonce_iniciales_83_ a_nonce_iniciales_84_ a_nonce_iniciales_85_ a_nonce_iniciales_86_ a_nonce_iniciales_87_ a_nonce_iniciales_88_ a_nonce_iniciales_89_ a_nonce_iniciales_90_ a_nonce_iniciales_91_ a_nonce_iniciales_92_ a_nonce_iniciales_93_ a_nonce_iniciales_94_ a_nonce_iniciales_95_ a_nonce_iniciales_96_ a_nonce_iniciales_97_ a_nonce_iniciales_98_ a_nonce_iniciales_99_ a_nonce_iniciales_100_ a_nonce_iniciales_101_ a_nonce_iniciales_102_ a_nonce_iniciales_103_ a_nonce_iniciales_104_ a_nonce_iniciales_105_ a_nonce_iniciales_106_ a_nonce_iniciales_107_ a_nonce_iniciales_108_ a_nonce_iniciales_109_ a_nonce_iniciales_110_ a_nonce_iniciales_111_ a_nonce_iniciales_112_ a_nonce_iniciales_113_ a_nonce_iniciales_114_ a_nonce_iniciales_115_ a_nonce_iniciales_116_ a_nonce_iniciales_117_ a_nonce_iniciales_118_ a_nonce_iniciales_119_ a_nonce_iniciales_120_ a_nonce_iniciales_121_ a_nonce_iniciales_122_ a_nonce_iniciales_123_ a_nonce_iniciales_124_ a_nonce_iniciales_125_ a_nonce_iniciales_126_ a_nonce_iniciales_127_ a_target_0_ a_target_1_ a_target_2_ a_target_3_ a_target_4_ a_target_5_ a_target_6_ a_target_7_ a_bounty_out_0_ a_bounty_out_1_ a_bounty_out_2_ a_bounty_out_3_ a_bounty_out_4_ a_bounty_out_5_ a_bounty_out_6_ a_bounty_out_7_ a_bounty_out_8_ a_bounty_out_9_ a_bounty_out_10_ a_bounty_out_11_ a_bounty_out_12_ a_bounty_out_13_ a_bounty_out_14_ a_bounty_out_15_ a_bounty_out_16_ a_bounty_out_17_ a_bounty_out_18_ a_bounty_out_19_ a_bounty_out_20_ a_bounty_out_21_ a_bounty_out_22_ a_bounty_out_23_ a_terminado_out
ABUFX4_1 [bloque_datos_83_] bloque_datos_83_bF$buf5_ d_lut_BUFX4
ABUFX4_2 [bloque_datos_83_] bloque_datos_83_bF$buf4_ d_lut_BUFX4
ABUFX4_3 [bloque_datos_83_] bloque_datos_83_bF$buf3_ d_lut_BUFX4
ABUFX4_4 [bloque_datos_83_] bloque_datos_83_bF$buf2_ d_lut_BUFX4
ABUFX4_5 [bloque_datos_83_] bloque_datos_83_bF$buf1_ d_lut_BUFX4
ABUFX4_6 [bloque_datos_83_] bloque_datos_83_bF$buf0_ d_lut_BUFX4
ABUFX4_7 [_12797_] _12797__bF$buf4 d_lut_BUFX4
ABUFX4_8 [_12797_] _12797__bF$buf3 d_lut_BUFX4
ABUFX4_9 [_12797_] _12797__bF$buf2 d_lut_BUFX4
ABUFX4_10 [_12797_] _12797__bF$buf1 d_lut_BUFX4
ABUFX4_11 [_12797_] _12797__bF$buf0 d_lut_BUFX4
ABUFX4_12 [bloque_datos_42_] bloque_datos_42_bF$buf3_ d_lut_BUFX4
ABUFX4_13 [bloque_datos_42_] bloque_datos_42_bF$buf2_ d_lut_BUFX4
ABUFX4_14 [bloque_datos_42_] bloque_datos_42_bF$buf1_ d_lut_BUFX4
ABUFX4_15 [bloque_datos_42_] bloque_datos_42_bF$buf0_ d_lut_BUFX4
ABUFX4_16 [bloque_datos_80_] bloque_datos_80_bF$buf5_ d_lut_BUFX4
ABUFX4_17 [bloque_datos_80_] bloque_datos_80_bF$buf4_ d_lut_BUFX4
ABUFX4_18 [bloque_datos_80_] bloque_datos_80_bF$buf3_ d_lut_BUFX4
ABUFX4_19 [bloque_datos_80_] bloque_datos_80_bF$buf2_ d_lut_BUFX4
ABUFX4_20 [bloque_datos_80_] bloque_datos_80_bF$buf1_ d_lut_BUFX4
ABUFX4_21 [bloque_datos_80_] bloque_datos_80_bF$buf0_ d_lut_BUFX4
ABUFX4_22 [bloque_datos_77_] bloque_datos_77_bF$buf4_ d_lut_BUFX4
ABUFX4_23 [bloque_datos_77_] bloque_datos_77_bF$buf3_ d_lut_BUFX4
ABUFX4_24 [bloque_datos_77_] bloque_datos_77_bF$buf2_ d_lut_BUFX4
ABUFX4_25 [bloque_datos_77_] bloque_datos_77_bF$buf1_ d_lut_BUFX4
ABUFX4_26 [bloque_datos_77_] bloque_datos_77_bF$buf0_ d_lut_BUFX4
ABUFX4_27 [_16933_] _16933__bF$buf3 d_lut_BUFX4
ABUFX4_28 [_16933_] _16933__bF$buf2 d_lut_BUFX4
ABUFX4_29 [_16933_] _16933__bF$buf1 d_lut_BUFX4
ABUFX4_30 [_16933_] _16933__bF$buf0 d_lut_BUFX4
ABUFX4_31 [module_1.comparador_target_hash_0.terminado] module_1.comparador_target_hash_0.terminado_bF$buf6 d_lut_BUFX4
ABUFX4_32 [module_1.comparador_target_hash_0.terminado] module_1.comparador_target_hash_0.terminado_bF$buf5 d_lut_BUFX4
ABUFX4_33 [module_1.comparador_target_hash_0.terminado] module_1.comparador_target_hash_0.terminado_bF$buf4 d_lut_BUFX4
ABUFX4_34 [module_1.comparador_target_hash_0.terminado] module_1.comparador_target_hash_0.terminado_bF$buf3 d_lut_BUFX4
ABUFX4_35 [module_1.comparador_target_hash_0.terminado] module_1.comparador_target_hash_0.terminado_bF$buf2 d_lut_BUFX4
ABUFX4_36 [module_1.comparador_target_hash_0.terminado] module_1.comparador_target_hash_0.terminado_bF$buf1 d_lut_BUFX4
ABUFX4_37 [module_1.comparador_target_hash_0.terminado] module_1.comparador_target_hash_0.terminado_bF$buf0 d_lut_BUFX4
ABUFX4_38 [bloque_datos_36_] bloque_datos_36_bF$buf3_ d_lut_BUFX4
ABUFX4_39 [bloque_datos_36_] bloque_datos_36_bF$buf2_ d_lut_BUFX4
ABUFX4_40 [bloque_datos_36_] bloque_datos_36_bF$buf1_ d_lut_BUFX4
ABUFX4_41 [bloque_datos_36_] bloque_datos_36_bF$buf0_ d_lut_BUFX4
ABUFX4_42 [module_3.comparador_target_hash_0.terminado] module_3.comparador_target_hash_0.terminado_bF$buf6 d_lut_BUFX4
ABUFX4_43 [module_3.comparador_target_hash_0.terminado] module_3.comparador_target_hash_0.terminado_bF$buf5 d_lut_BUFX4
ABUFX4_44 [module_3.comparador_target_hash_0.terminado] module_3.comparador_target_hash_0.terminado_bF$buf4 d_lut_BUFX4
ABUFX4_45 [module_3.comparador_target_hash_0.terminado] module_3.comparador_target_hash_0.terminado_bF$buf3 d_lut_BUFX4
ABUFX4_46 [module_3.comparador_target_hash_0.terminado] module_3.comparador_target_hash_0.terminado_bF$buf2 d_lut_BUFX4
ABUFX4_47 [module_3.comparador_target_hash_0.terminado] module_3.comparador_target_hash_0.terminado_bF$buf1 d_lut_BUFX4
ABUFX4_48 [module_3.comparador_target_hash_0.terminado] module_3.comparador_target_hash_0.terminado_bF$buf0 d_lut_BUFX4
ABUFX4_49 [bloque_datos_74_] bloque_datos_74_bF$buf4_ d_lut_BUFX4
ABUFX4_50 [bloque_datos_74_] bloque_datos_74_bF$buf3_ d_lut_BUFX4
ABUFX4_51 [bloque_datos_74_] bloque_datos_74_bF$buf2_ d_lut_BUFX4
ABUFX4_52 [bloque_datos_74_] bloque_datos_74_bF$buf1_ d_lut_BUFX4
ABUFX4_53 [bloque_datos_74_] bloque_datos_74_bF$buf0_ d_lut_BUFX4
ABUFX4_54 [bloque_datos_33_] bloque_datos_33_bF$buf3_ d_lut_BUFX4
ABUFX4_55 [bloque_datos_33_] bloque_datos_33_bF$buf2_ d_lut_BUFX4
ABUFX4_56 [bloque_datos_33_] bloque_datos_33_bF$buf1_ d_lut_BUFX4
ABUFX4_57 [bloque_datos_33_] bloque_datos_33_bF$buf0_ d_lut_BUFX4
ABUFX4_58 [bloque_datos_71_] bloque_datos_71_bF$buf3_ d_lut_BUFX4
ABUFX4_59 [bloque_datos_71_] bloque_datos_71_bF$buf2_ d_lut_BUFX4
ABUFX4_60 [bloque_datos_71_] bloque_datos_71_bF$buf1_ d_lut_BUFX4
ABUFX4_61 [bloque_datos_71_] bloque_datos_71_bF$buf0_ d_lut_BUFX4
ABUFX4_62 [bloque_datos_6_] bloque_datos_6_bF$buf3_ d_lut_BUFX4
ABUFX4_63 [bloque_datos_6_] bloque_datos_6_bF$buf2_ d_lut_BUFX4
ABUFX4_64 [bloque_datos_6_] bloque_datos_6_bF$buf1_ d_lut_BUFX4
ABUFX4_65 [bloque_datos_6_] bloque_datos_6_bF$buf0_ d_lut_BUFX4
ABUFX4_66 [bloque_datos_68_] bloque_datos_68_bF$buf3_ d_lut_BUFX4
ABUFX4_67 [bloque_datos_68_] bloque_datos_68_bF$buf2_ d_lut_BUFX4
ABUFX4_68 [bloque_datos_68_] bloque_datos_68_bF$buf1_ d_lut_BUFX4
ABUFX4_69 [bloque_datos_68_] bloque_datos_68_bF$buf0_ d_lut_BUFX4
ABUFX4_70 [_12844_] _12844__bF$buf4 d_lut_BUFX4
ABUFX4_71 [_12844_] _12844__bF$buf3 d_lut_BUFX4
ABUFX4_72 [_12844_] _12844__bF$buf2 d_lut_BUFX4
ABUFX4_73 [_12844_] _12844__bF$buf1 d_lut_BUFX4
ABUFX4_74 [_12844_] _12844__bF$buf0 d_lut_BUFX4
ABUFX4_75 [bloque_datos_30_] bloque_datos_30_bF$buf3_ d_lut_BUFX4
ABUFX4_76 [bloque_datos_30_] bloque_datos_30_bF$buf2_ d_lut_BUFX4
ABUFX4_77 [bloque_datos_30_] bloque_datos_30_bF$buf1_ d_lut_BUFX4
ABUFX4_78 [bloque_datos_30_] bloque_datos_30_bF$buf0_ d_lut_BUFX4
ABUFX4_79 [bloque_datos_3_] bloque_datos_3_bF$buf3_ d_lut_BUFX4
ABUFX4_80 [bloque_datos_3_] bloque_datos_3_bF$buf2_ d_lut_BUFX4
ABUFX4_81 [bloque_datos_3_] bloque_datos_3_bF$buf1_ d_lut_BUFX4
ABUFX4_82 [bloque_datos_3_] bloque_datos_3_bF$buf0_ d_lut_BUFX4
ABUFX4_83 [bloque_datos_27_] bloque_datos_27_bF$buf4_ d_lut_BUFX4
ABUFX4_84 [bloque_datos_27_] bloque_datos_27_bF$buf3_ d_lut_BUFX4
ABUFX4_85 [bloque_datos_27_] bloque_datos_27_bF$buf2_ d_lut_BUFX4
ABUFX4_86 [bloque_datos_27_] bloque_datos_27_bF$buf1_ d_lut_BUFX4
ABUFX4_87 [bloque_datos_27_] bloque_datos_27_bF$buf0_ d_lut_BUFX4
ABUFX4_88 [bloque_datos_65_] bloque_datos_65_bF$buf3_ d_lut_BUFX4
ABUFX4_89 [bloque_datos_65_] bloque_datos_65_bF$buf2_ d_lut_BUFX4
ABUFX4_90 [bloque_datos_65_] bloque_datos_65_bF$buf1_ d_lut_BUFX4
ABUFX4_91 [bloque_datos_65_] bloque_datos_65_bF$buf0_ d_lut_BUFX4
ACLKBUF1_1 [clk] clk_bF$buf10 d_lut_CLKBUF1
ACLKBUF1_2 [clk] clk_bF$buf9 d_lut_CLKBUF1
ACLKBUF1_3 [clk] clk_bF$buf8 d_lut_CLKBUF1
ACLKBUF1_4 [clk] clk_bF$buf7 d_lut_CLKBUF1
ACLKBUF1_5 [clk] clk_bF$buf6 d_lut_CLKBUF1
ACLKBUF1_6 [clk] clk_bF$buf5 d_lut_CLKBUF1
ACLKBUF1_7 [clk] clk_bF$buf4 d_lut_CLKBUF1
ACLKBUF1_8 [clk] clk_bF$buf3 d_lut_CLKBUF1
ACLKBUF1_9 [clk] clk_bF$buf2 d_lut_CLKBUF1
ACLKBUF1_10 [clk] clk_bF$buf1 d_lut_CLKBUF1
ACLKBUF1_11 [clk] clk_bF$buf0 d_lut_CLKBUF1
ABUFX4_92 [_4187_] _4187__bF$buf4 d_lut_BUFX4
ABUFX4_93 [_4187_] _4187__bF$buf3 d_lut_BUFX4
ABUFX4_94 [_4187_] _4187__bF$buf2 d_lut_BUFX4
ABUFX4_95 [_4187_] _4187__bF$buf1 d_lut_BUFX4
ABUFX4_96 [_4187_] _4187__bF$buf0 d_lut_BUFX4
ABUFX4_97 [bloque_datos_24_] bloque_datos_24_bF$buf4_ d_lut_BUFX4
ABUFX4_98 [bloque_datos_24_] bloque_datos_24_bF$buf3_ d_lut_BUFX4
ABUFX4_99 [bloque_datos_24_] bloque_datos_24_bF$buf2_ d_lut_BUFX4
ABUFX4_100 [bloque_datos_24_] bloque_datos_24_bF$buf1_ d_lut_BUFX4
ABUFX4_101 [bloque_datos_24_] bloque_datos_24_bF$buf0_ d_lut_BUFX4
ABUFX4_102 [bloque_datos_62_] bloque_datos_62_bF$buf3_ d_lut_BUFX4
ABUFX4_103 [bloque_datos_62_] bloque_datos_62_bF$buf2_ d_lut_BUFX4
ABUFX4_104 [bloque_datos_62_] bloque_datos_62_bF$buf1_ d_lut_BUFX4
ABUFX4_105 [bloque_datos_62_] bloque_datos_62_bF$buf0_ d_lut_BUFX4
ABUFX4_106 [_8323_] _8323__bF$buf3 d_lut_BUFX4
ABUFX4_107 [_8323_] _8323__bF$buf2 d_lut_BUFX4
ABUFX4_108 [_8323_] _8323__bF$buf1 d_lut_BUFX4
ABUFX4_109 [_8323_] _8323__bF$buf0 d_lut_BUFX4
ABUFX4_110 [bloque_datos_59_] bloque_datos_59_bF$buf4_ d_lut_BUFX4
ABUFX4_111 [bloque_datos_59_] bloque_datos_59_bF$buf3_ d_lut_BUFX4
ABUFX4_112 [bloque_datos_59_] bloque_datos_59_bF$buf2_ d_lut_BUFX4
ABUFX4_113 [bloque_datos_59_] bloque_datos_59_bF$buf1_ d_lut_BUFX4
ABUFX4_114 [bloque_datos_59_] bloque_datos_59_bF$buf0_ d_lut_BUFX4
ABUFX4_115 [bloque_datos_21_] bloque_datos_21_bF$buf3_ d_lut_BUFX4
ABUFX4_116 [bloque_datos_21_] bloque_datos_21_bF$buf2_ d_lut_BUFX4
ABUFX4_117 [bloque_datos_21_] bloque_datos_21_bF$buf1_ d_lut_BUFX4
ABUFX4_118 [bloque_datos_21_] bloque_datos_21_bF$buf0_ d_lut_BUFX4
ABUFX4_119 [bloque_datos_56_] bloque_datos_56_bF$buf4_ d_lut_BUFX4
ABUFX4_120 [bloque_datos_56_] bloque_datos_56_bF$buf3_ d_lut_BUFX4
ABUFX4_121 [bloque_datos_56_] bloque_datos_56_bF$buf2_ d_lut_BUFX4
ABUFX4_122 [bloque_datos_56_] bloque_datos_56_bF$buf1_ d_lut_BUFX4
ABUFX4_123 [bloque_datos_56_] bloque_datos_56_bF$buf0_ d_lut_BUFX4
ABUFX4_124 [bloque_datos_94_] bloque_datos_94_bF$buf3_ d_lut_BUFX4
ABUFX4_125 [bloque_datos_94_] bloque_datos_94_bF$buf2_ d_lut_BUFX4
ABUFX4_126 [bloque_datos_94_] bloque_datos_94_bF$buf1_ d_lut_BUFX4
ABUFX4_127 [bloque_datos_94_] bloque_datos_94_bF$buf0_ d_lut_BUFX4
ABUFX4_128 [bloque_datos_53_] bloque_datos_53_bF$buf3_ d_lut_BUFX4
ABUFX4_129 [bloque_datos_53_] bloque_datos_53_bF$buf2_ d_lut_BUFX4
ABUFX4_130 [bloque_datos_53_] bloque_datos_53_bF$buf1_ d_lut_BUFX4
ABUFX4_131 [bloque_datos_53_] bloque_datos_53_bF$buf0_ d_lut_BUFX4
ABUFX4_132 [bloque_datos_91_] bloque_datos_91_bF$buf3_ d_lut_BUFX4
ABUFX4_133 [bloque_datos_91_] bloque_datos_91_bF$buf2_ d_lut_BUFX4
ABUFX4_134 [bloque_datos_91_] bloque_datos_91_bF$buf1_ d_lut_BUFX4
ABUFX4_135 [bloque_datos_91_] bloque_datos_91_bF$buf0_ d_lut_BUFX4
ABUFX4_136 [_4234_] _4234__bF$buf4 d_lut_BUFX4
ABUFX4_137 [_4234_] _4234__bF$buf3 d_lut_BUFX4
ABUFX4_138 [_4234_] _4234__bF$buf2 d_lut_BUFX4
ABUFX4_139 [_4234_] _4234__bF$buf1 d_lut_BUFX4
ABUFX4_140 [_4234_] _4234__bF$buf0 d_lut_BUFX4
ABUFX4_141 [bloque_datos_88_] bloque_datos_88_bF$buf4_ d_lut_BUFX4
ABUFX4_142 [bloque_datos_88_] bloque_datos_88_bF$buf3_ d_lut_BUFX4
ABUFX4_143 [bloque_datos_88_] bloque_datos_88_bF$buf2_ d_lut_BUFX4
ABUFX4_144 [bloque_datos_88_] bloque_datos_88_bF$buf1_ d_lut_BUFX4
ABUFX4_145 [bloque_datos_88_] bloque_datos_88_bF$buf0_ d_lut_BUFX4
ABUFX4_146 [bloque_datos_12_] bloque_datos_12_bF$buf3_ d_lut_BUFX4
ABUFX4_147 [bloque_datos_12_] bloque_datos_12_bF$buf2_ d_lut_BUFX4
ABUFX4_148 [bloque_datos_12_] bloque_datos_12_bF$buf1_ d_lut_BUFX4
ABUFX4_149 [bloque_datos_12_] bloque_datos_12_bF$buf0_ d_lut_BUFX4
ABUFX4_150 [bloque_datos_50_] bloque_datos_50_bF$buf3_ d_lut_BUFX4
ABUFX4_151 [bloque_datos_50_] bloque_datos_50_bF$buf2_ d_lut_BUFX4
ABUFX4_152 [bloque_datos_50_] bloque_datos_50_bF$buf1_ d_lut_BUFX4
ABUFX4_153 [bloque_datos_50_] bloque_datos_50_bF$buf0_ d_lut_BUFX4
ABUFX4_154 [bloque_datos_47_] bloque_datos_47_bF$buf3_ d_lut_BUFX4
ABUFX4_155 [bloque_datos_47_] bloque_datos_47_bF$buf2_ d_lut_BUFX4
ABUFX4_156 [bloque_datos_47_] bloque_datos_47_bF$buf1_ d_lut_BUFX4
ABUFX4_157 [bloque_datos_47_] bloque_datos_47_bF$buf0_ d_lut_BUFX4
ABUFX4_158 [bloque_datos_85_] bloque_datos_85_bF$buf4_ d_lut_BUFX4
ABUFX4_159 [bloque_datos_85_] bloque_datos_85_bF$buf3_ d_lut_BUFX4
ABUFX4_160 [bloque_datos_85_] bloque_datos_85_bF$buf2_ d_lut_BUFX4
ABUFX4_161 [bloque_datos_85_] bloque_datos_85_bF$buf1_ d_lut_BUFX4
ABUFX4_162 [bloque_datos_85_] bloque_datos_85_bF$buf0_ d_lut_BUFX4
ABUFX4_163 [bloque_datos_44_] bloque_datos_44_bF$buf4_ d_lut_BUFX4
ABUFX4_164 [bloque_datos_44_] bloque_datos_44_bF$buf3_ d_lut_BUFX4
ABUFX4_165 [bloque_datos_44_] bloque_datos_44_bF$buf2_ d_lut_BUFX4
ABUFX4_166 [bloque_datos_44_] bloque_datos_44_bF$buf1_ d_lut_BUFX4
ABUFX4_167 [bloque_datos_44_] bloque_datos_44_bF$buf0_ d_lut_BUFX4
ABUFX4_168 [bloque_datos_82_] bloque_datos_82_bF$buf4_ d_lut_BUFX4
ABUFX4_169 [bloque_datos_82_] bloque_datos_82_bF$buf3_ d_lut_BUFX4
ABUFX4_170 [bloque_datos_82_] bloque_datos_82_bF$buf2_ d_lut_BUFX4
ABUFX4_171 [bloque_datos_82_] bloque_datos_82_bF$buf1_ d_lut_BUFX4
ABUFX4_172 [bloque_datos_82_] bloque_datos_82_bF$buf0_ d_lut_BUFX4
ABUFX4_173 [bloque_datos_79_] bloque_datos_79_bF$buf3_ d_lut_BUFX4
ABUFX4_174 [bloque_datos_79_] bloque_datos_79_bF$buf2_ d_lut_BUFX4
ABUFX4_175 [bloque_datos_79_] bloque_datos_79_bF$buf1_ d_lut_BUFX4
ABUFX4_176 [bloque_datos_79_] bloque_datos_79_bF$buf0_ d_lut_BUFX4
ABUFX4_177 [bloque_datos_41_] bloque_datos_41_bF$buf3_ d_lut_BUFX4
ABUFX4_178 [bloque_datos_41_] bloque_datos_41_bF$buf2_ d_lut_BUFX4
ABUFX4_179 [bloque_datos_41_] bloque_datos_41_bF$buf1_ d_lut_BUFX4
ABUFX4_180 [bloque_datos_41_] bloque_datos_41_bF$buf0_ d_lut_BUFX4
ABUFX4_181 [bloque_datos_38_] bloque_datos_38_bF$buf3_ d_lut_BUFX4
ABUFX4_182 [bloque_datos_38_] bloque_datos_38_bF$buf2_ d_lut_BUFX4
ABUFX4_183 [bloque_datos_38_] bloque_datos_38_bF$buf1_ d_lut_BUFX4
ABUFX4_184 [bloque_datos_38_] bloque_datos_38_bF$buf0_ d_lut_BUFX4
ABUFX4_185 [bloque_datos_76_] bloque_datos_76_bF$buf4_ d_lut_BUFX4
ABUFX4_186 [bloque_datos_76_] bloque_datos_76_bF$buf3_ d_lut_BUFX4
ABUFX4_187 [bloque_datos_76_] bloque_datos_76_bF$buf2_ d_lut_BUFX4
ABUFX4_188 [bloque_datos_76_] bloque_datos_76_bF$buf1_ d_lut_BUFX4
ABUFX4_189 [bloque_datos_76_] bloque_datos_76_bF$buf0_ d_lut_BUFX4
ABUFX4_190 [bloque_datos_35_] bloque_datos_35_bF$buf4_ d_lut_BUFX4
ABUFX4_191 [bloque_datos_35_] bloque_datos_35_bF$buf3_ d_lut_BUFX4
ABUFX4_192 [bloque_datos_35_] bloque_datos_35_bF$buf2_ d_lut_BUFX4
ABUFX4_193 [bloque_datos_35_] bloque_datos_35_bF$buf1_ d_lut_BUFX4
ABUFX4_194 [bloque_datos_35_] bloque_datos_35_bF$buf0_ d_lut_BUFX4
ABUFX4_195 [bloque_datos_73_] bloque_datos_73_bF$buf3_ d_lut_BUFX4
ABUFX4_196 [bloque_datos_73_] bloque_datos_73_bF$buf2_ d_lut_BUFX4
ABUFX4_197 [bloque_datos_73_] bloque_datos_73_bF$buf1_ d_lut_BUFX4
ABUFX4_198 [bloque_datos_73_] bloque_datos_73_bF$buf0_ d_lut_BUFX4
ABUFX4_199 [bloque_datos_32_] bloque_datos_32_bF$buf4_ d_lut_BUFX4
ABUFX4_200 [bloque_datos_32_] bloque_datos_32_bF$buf3_ d_lut_BUFX4
ABUFX4_201 [bloque_datos_32_] bloque_datos_32_bF$buf2_ d_lut_BUFX4
ABUFX4_202 [bloque_datos_32_] bloque_datos_32_bF$buf1_ d_lut_BUFX4
ABUFX4_203 [bloque_datos_32_] bloque_datos_32_bF$buf0_ d_lut_BUFX4
ABUFX4_204 [bloque_datos_70_] bloque_datos_70_bF$buf3_ d_lut_BUFX4
ABUFX4_205 [bloque_datos_70_] bloque_datos_70_bF$buf2_ d_lut_BUFX4
ABUFX4_206 [bloque_datos_70_] bloque_datos_70_bF$buf1_ d_lut_BUFX4
ABUFX4_207 [bloque_datos_70_] bloque_datos_70_bF$buf0_ d_lut_BUFX4
ABUFX4_208 [inicio] inicio_bF$buf10 d_lut_BUFX4
ABUFX4_209 [inicio] inicio_bF$buf9 d_lut_BUFX4
ABUFX4_210 [inicio] inicio_bF$buf8 d_lut_BUFX4
ABUFX4_211 [inicio] inicio_bF$buf7 d_lut_BUFX4
ABUFX4_212 [inicio] inicio_bF$buf6 d_lut_BUFX4
ABUFX4_213 [inicio] inicio_bF$buf5 d_lut_BUFX4
ABUFX4_214 [inicio] inicio_bF$buf4 d_lut_BUFX4
ABUFX4_215 [inicio] inicio_bF$buf3 d_lut_BUFX4
ABUFX4_216 [inicio] inicio_bF$buf2 d_lut_BUFX4
ABUFX4_217 [inicio] inicio_bF$buf1 d_lut_BUFX4
ABUFX4_218 [inicio] inicio_bF$buf0 d_lut_BUFX4
ABUFX4_219 [bloque_datos_5_] bloque_datos_5_bF$buf3_ d_lut_BUFX4
ABUFX4_220 [bloque_datos_5_] bloque_datos_5_bF$buf2_ d_lut_BUFX4
ABUFX4_221 [bloque_datos_5_] bloque_datos_5_bF$buf1_ d_lut_BUFX4
ABUFX4_222 [bloque_datos_5_] bloque_datos_5_bF$buf0_ d_lut_BUFX4
ABUFX4_223 [bloque_datos_29_] bloque_datos_29_bF$buf4_ d_lut_BUFX4
ABUFX4_224 [bloque_datos_29_] bloque_datos_29_bF$buf3_ d_lut_BUFX4
ABUFX4_225 [bloque_datos_29_] bloque_datos_29_bF$buf2_ d_lut_BUFX4
ABUFX4_226 [bloque_datos_29_] bloque_datos_29_bF$buf1_ d_lut_BUFX4
ABUFX4_227 [bloque_datos_29_] bloque_datos_29_bF$buf0_ d_lut_BUFX4
ABUFX4_228 [bloque_datos_67_] bloque_datos_67_bF$buf4_ d_lut_BUFX4
ABUFX4_229 [bloque_datos_67_] bloque_datos_67_bF$buf3_ d_lut_BUFX4
ABUFX4_230 [bloque_datos_67_] bloque_datos_67_bF$buf2_ d_lut_BUFX4
ABUFX4_231 [bloque_datos_67_] bloque_datos_67_bF$buf1_ d_lut_BUFX4
ABUFX4_232 [bloque_datos_67_] bloque_datos_67_bF$buf0_ d_lut_BUFX4
ABUFX4_233 [bloque_datos_2_] bloque_datos_2_bF$buf3_ d_lut_BUFX4
ABUFX4_234 [bloque_datos_2_] bloque_datos_2_bF$buf2_ d_lut_BUFX4
ABUFX4_235 [bloque_datos_2_] bloque_datos_2_bF$buf1_ d_lut_BUFX4
ABUFX4_236 [bloque_datos_2_] bloque_datos_2_bF$buf0_ d_lut_BUFX4
ABUFX4_237 [bloque_datos_26_] bloque_datos_26_bF$buf3_ d_lut_BUFX4
ABUFX4_238 [bloque_datos_26_] bloque_datos_26_bF$buf2_ d_lut_BUFX4
ABUFX4_239 [bloque_datos_26_] bloque_datos_26_bF$buf1_ d_lut_BUFX4
ABUFX4_240 [bloque_datos_26_] bloque_datos_26_bF$buf0_ d_lut_BUFX4
ABUFX4_241 [bloque_datos_64_] bloque_datos_64_bF$buf4_ d_lut_BUFX4
ABUFX4_242 [bloque_datos_64_] bloque_datos_64_bF$buf3_ d_lut_BUFX4
ABUFX4_243 [bloque_datos_64_] bloque_datos_64_bF$buf2_ d_lut_BUFX4
ABUFX4_244 [bloque_datos_64_] bloque_datos_64_bF$buf1_ d_lut_BUFX4
ABUFX4_245 [bloque_datos_64_] bloque_datos_64_bF$buf0_ d_lut_BUFX4
ABUFX4_246 [bloque_datos_23_] bloque_datos_23_bF$buf3_ d_lut_BUFX4
ABUFX4_247 [bloque_datos_23_] bloque_datos_23_bF$buf2_ d_lut_BUFX4
ABUFX4_248 [bloque_datos_23_] bloque_datos_23_bF$buf1_ d_lut_BUFX4
ABUFX4_249 [bloque_datos_23_] bloque_datos_23_bF$buf0_ d_lut_BUFX4
ABUFX4_250 [bloque_datos_61_] bloque_datos_61_bF$buf4_ d_lut_BUFX4
ABUFX4_251 [bloque_datos_61_] bloque_datos_61_bF$buf3_ d_lut_BUFX4
ABUFX4_252 [bloque_datos_61_] bloque_datos_61_bF$buf2_ d_lut_BUFX4
ABUFX4_253 [bloque_datos_61_] bloque_datos_61_bF$buf1_ d_lut_BUFX4
ABUFX4_254 [bloque_datos_61_] bloque_datos_61_bF$buf0_ d_lut_BUFX4
ABUFX4_255 [bloque_datos_58_] bloque_datos_58_bF$buf4_ d_lut_BUFX4
ABUFX4_256 [bloque_datos_58_] bloque_datos_58_bF$buf3_ d_lut_BUFX4
ABUFX4_257 [bloque_datos_58_] bloque_datos_58_bF$buf2_ d_lut_BUFX4
ABUFX4_258 [bloque_datos_58_] bloque_datos_58_bF$buf1_ d_lut_BUFX4
ABUFX4_259 [bloque_datos_58_] bloque_datos_58_bF$buf0_ d_lut_BUFX4
ABUFX4_260 [_8492_] _8492__bF$buf4 d_lut_BUFX4
ABUFX4_261 [_8492_] _8492__bF$buf3 d_lut_BUFX4
ABUFX4_262 [_8492_] _8492__bF$buf2 d_lut_BUFX4
ABUFX4_263 [_8492_] _8492__bF$buf1 d_lut_BUFX4
ABUFX4_264 [_8492_] _8492__bF$buf0 d_lut_BUFX4
ABUFX4_265 [bloque_datos_20_] bloque_datos_20_bF$buf3_ d_lut_BUFX4
ABUFX4_266 [bloque_datos_20_] bloque_datos_20_bF$buf2_ d_lut_BUFX4
ABUFX4_267 [bloque_datos_20_] bloque_datos_20_bF$buf1_ d_lut_BUFX4
ABUFX4_268 [bloque_datos_20_] bloque_datos_20_bF$buf0_ d_lut_BUFX4
ABUFX4_269 [bloque_datos_93_] bloque_datos_93_bF$buf3_ d_lut_BUFX4
ABUFX4_270 [bloque_datos_93_] bloque_datos_93_bF$buf2_ d_lut_BUFX4
ABUFX4_271 [bloque_datos_93_] bloque_datos_93_bF$buf1_ d_lut_BUFX4
ABUFX4_272 [bloque_datos_93_] bloque_datos_93_bF$buf0_ d_lut_BUFX4
ABUFX4_273 [bloque_datos_14_] bloque_datos_14_bF$buf3_ d_lut_BUFX4
ABUFX4_274 [bloque_datos_14_] bloque_datos_14_bF$buf2_ d_lut_BUFX4
ABUFX4_275 [bloque_datos_14_] bloque_datos_14_bF$buf1_ d_lut_BUFX4
ABUFX4_276 [bloque_datos_14_] bloque_datos_14_bF$buf0_ d_lut_BUFX4
ABUFX4_277 [bloque_datos_52_] bloque_datos_52_bF$buf4_ d_lut_BUFX4
ABUFX4_278 [bloque_datos_52_] bloque_datos_52_bF$buf3_ d_lut_BUFX4
ABUFX4_279 [bloque_datos_52_] bloque_datos_52_bF$buf2_ d_lut_BUFX4
ABUFX4_280 [bloque_datos_52_] bloque_datos_52_bF$buf1_ d_lut_BUFX4
ABUFX4_281 [bloque_datos_52_] bloque_datos_52_bF$buf0_ d_lut_BUFX4
ABUFX4_282 [bloque_datos_90_] bloque_datos_90_bF$buf4_ d_lut_BUFX4
ABUFX4_283 [bloque_datos_90_] bloque_datos_90_bF$buf3_ d_lut_BUFX4
ABUFX4_284 [bloque_datos_90_] bloque_datos_90_bF$buf2_ d_lut_BUFX4
ABUFX4_285 [bloque_datos_90_] bloque_datos_90_bF$buf1_ d_lut_BUFX4
ABUFX4_286 [bloque_datos_90_] bloque_datos_90_bF$buf0_ d_lut_BUFX4
ABUFX4_287 [bloque_datos_49_] bloque_datos_49_bF$buf3_ d_lut_BUFX4
ABUFX4_288 [bloque_datos_49_] bloque_datos_49_bF$buf2_ d_lut_BUFX4
ABUFX4_289 [bloque_datos_49_] bloque_datos_49_bF$buf1_ d_lut_BUFX4
ABUFX4_290 [bloque_datos_49_] bloque_datos_49_bF$buf0_ d_lut_BUFX4
ABUFX4_291 [bloque_datos_87_] bloque_datos_87_bF$buf3_ d_lut_BUFX4
ABUFX4_292 [bloque_datos_87_] bloque_datos_87_bF$buf2_ d_lut_BUFX4
ABUFX4_293 [bloque_datos_87_] bloque_datos_87_bF$buf1_ d_lut_BUFX4
ABUFX4_294 [bloque_datos_87_] bloque_datos_87_bF$buf0_ d_lut_BUFX4
ABUFX4_295 [_8539_] _8539__bF$buf4 d_lut_BUFX4
ABUFX4_296 [_8539_] _8539__bF$buf3 d_lut_BUFX4
ABUFX4_297 [_8539_] _8539__bF$buf2 d_lut_BUFX4
ABUFX4_298 [_8539_] _8539__bF$buf1 d_lut_BUFX4
ABUFX4_299 [_8539_] _8539__bF$buf0 d_lut_BUFX4
ABUFX4_300 [bloque_datos_46_] bloque_datos_46_bF$buf4_ d_lut_BUFX4
ABUFX4_301 [bloque_datos_46_] bloque_datos_46_bF$buf3_ d_lut_BUFX4
ABUFX4_302 [bloque_datos_46_] bloque_datos_46_bF$buf2_ d_lut_BUFX4
ABUFX4_303 [bloque_datos_46_] bloque_datos_46_bF$buf1_ d_lut_BUFX4
ABUFX4_304 [bloque_datos_46_] bloque_datos_46_bF$buf0_ d_lut_BUFX4
ABUFX4_305 [bloque_datos_84_] bloque_datos_84_bF$buf4_ d_lut_BUFX4
ABUFX4_306 [bloque_datos_84_] bloque_datos_84_bF$buf3_ d_lut_BUFX4
ABUFX4_307 [bloque_datos_84_] bloque_datos_84_bF$buf2_ d_lut_BUFX4
ABUFX4_308 [bloque_datos_84_] bloque_datos_84_bF$buf1_ d_lut_BUFX4
ABUFX4_309 [bloque_datos_84_] bloque_datos_84_bF$buf0_ d_lut_BUFX4
ABUFX4_310 [_12628_] _12628__bF$buf3 d_lut_BUFX4
ABUFX4_311 [_12628_] _12628__bF$buf2 d_lut_BUFX4
ABUFX4_312 [_12628_] _12628__bF$buf1 d_lut_BUFX4
ABUFX4_313 [_12628_] _12628__bF$buf0 d_lut_BUFX4
ABUFX4_314 [_17149_] _17149__bF$buf4 d_lut_BUFX4
ABUFX4_315 [_17149_] _17149__bF$buf3 d_lut_BUFX4
ABUFX4_316 [_17149_] _17149__bF$buf2 d_lut_BUFX4
ABUFX4_317 [_17149_] _17149__bF$buf1 d_lut_BUFX4
ABUFX4_318 [_17149_] _17149__bF$buf0 d_lut_BUFX4
ABUFX4_319 [bloque_datos_43_] bloque_datos_43_bF$buf3_ d_lut_BUFX4
ABUFX4_320 [bloque_datos_43_] bloque_datos_43_bF$buf2_ d_lut_BUFX4
ABUFX4_321 [bloque_datos_43_] bloque_datos_43_bF$buf1_ d_lut_BUFX4
ABUFX4_322 [bloque_datos_43_] bloque_datos_43_bF$buf0_ d_lut_BUFX4
ABUFX4_323 [bloque_datos_81_] bloque_datos_81_bF$buf4_ d_lut_BUFX4
ABUFX4_324 [bloque_datos_81_] bloque_datos_81_bF$buf3_ d_lut_BUFX4
ABUFX4_325 [bloque_datos_81_] bloque_datos_81_bF$buf2_ d_lut_BUFX4
ABUFX4_326 [bloque_datos_81_] bloque_datos_81_bF$buf1_ d_lut_BUFX4
ABUFX4_327 [bloque_datos_81_] bloque_datos_81_bF$buf0_ d_lut_BUFX4
ABUFX4_328 [bloque_datos_78_] bloque_datos_78_bF$buf4_ d_lut_BUFX4
ABUFX4_329 [bloque_datos_78_] bloque_datos_78_bF$buf3_ d_lut_BUFX4
ABUFX4_330 [bloque_datos_78_] bloque_datos_78_bF$buf2_ d_lut_BUFX4
ABUFX4_331 [bloque_datos_78_] bloque_datos_78_bF$buf1_ d_lut_BUFX4
ABUFX4_332 [bloque_datos_78_] bloque_datos_78_bF$buf0_ d_lut_BUFX4
ABUFX4_333 [module_0.comparador_target_hash_0.terminado] module_0.comparador_target_hash_0.terminado_bF$buf4 d_lut_BUFX4
ABUFX4_334 [module_0.comparador_target_hash_0.terminado] module_0.comparador_target_hash_0.terminado_bF$buf3 d_lut_BUFX4
ABUFX4_335 [module_0.comparador_target_hash_0.terminado] module_0.comparador_target_hash_0.terminado_bF$buf2 d_lut_BUFX4
ABUFX4_336 [module_0.comparador_target_hash_0.terminado] module_0.comparador_target_hash_0.terminado_bF$buf1 d_lut_BUFX4
ABUFX4_337 [module_0.comparador_target_hash_0.terminado] module_0.comparador_target_hash_0.terminado_bF$buf0 d_lut_BUFX4
ABUFX4_338 [bloque_datos_40_] bloque_datos_40_bF$buf4_ d_lut_BUFX4
ABUFX4_339 [bloque_datos_40_] bloque_datos_40_bF$buf3_ d_lut_BUFX4
ABUFX4_340 [bloque_datos_40_] bloque_datos_40_bF$buf2_ d_lut_BUFX4
ABUFX4_341 [bloque_datos_40_] bloque_datos_40_bF$buf1_ d_lut_BUFX4
ABUFX4_342 [bloque_datos_40_] bloque_datos_40_bF$buf0_ d_lut_BUFX4
ABUFX4_343 [module_2.comparador_target_hash_0.terminado] module_2.comparador_target_hash_0.terminado_bF$buf6 d_lut_BUFX4
ABUFX4_344 [module_2.comparador_target_hash_0.terminado] module_2.comparador_target_hash_0.terminado_bF$buf5 d_lut_BUFX4
ABUFX4_345 [module_2.comparador_target_hash_0.terminado] module_2.comparador_target_hash_0.terminado_bF$buf4 d_lut_BUFX4
ABUFX4_346 [module_2.comparador_target_hash_0.terminado] module_2.comparador_target_hash_0.terminado_bF$buf3 d_lut_BUFX4
ABUFX4_347 [module_2.comparador_target_hash_0.terminado] module_2.comparador_target_hash_0.terminado_bF$buf2 d_lut_BUFX4
ABUFX4_348 [module_2.comparador_target_hash_0.terminado] module_2.comparador_target_hash_0.terminado_bF$buf1 d_lut_BUFX4
ABUFX4_349 [module_2.comparador_target_hash_0.terminado] module_2.comparador_target_hash_0.terminado_bF$buf0 d_lut_BUFX4
ABUFX4_350 [bloque_datos_37_] bloque_datos_37_bF$buf3_ d_lut_BUFX4
ABUFX4_351 [bloque_datos_37_] bloque_datos_37_bF$buf2_ d_lut_BUFX4
ABUFX4_352 [bloque_datos_37_] bloque_datos_37_bF$buf1_ d_lut_BUFX4
ABUFX4_353 [bloque_datos_37_] bloque_datos_37_bF$buf0_ d_lut_BUFX4
ABUFX4_354 [bloque_datos_75_] bloque_datos_75_bF$buf4_ d_lut_BUFX4
ABUFX4_355 [bloque_datos_75_] bloque_datos_75_bF$buf3_ d_lut_BUFX4
ABUFX4_356 [bloque_datos_75_] bloque_datos_75_bF$buf2_ d_lut_BUFX4
ABUFX4_357 [bloque_datos_75_] bloque_datos_75_bF$buf1_ d_lut_BUFX4
ABUFX4_358 [bloque_datos_75_] bloque_datos_75_bF$buf0_ d_lut_BUFX4